


  3  2  0  0  0  0  0  0  0  0  1 V2000
    2.3030   -0.6656    0.0000 C   0  0  0  0  0  0  0  0  0  0  0  0
    1.1515    0.0000    0.0000 C   0  0  0  0  0  0  0  0  0  0  0  0
    0.0000   -0.6656    0.0000 O   0  0  0  0  0  0  0  0  0  0  0  0
  1  2  1  0  0  0  0
  2  3  2  0  0  0  0
M  END
>  <ActivityOutcome_CPDBAS_Hamster>
active

$$$$



 17 19  0  0  0  0  0  0  0  0  1 V2000
    5.7640   -1.7698    0.0000 C   0  0  0  0  0  0  0  0  0  0  0  0
    7.0213   -1.3540    0.0000 C   0  0  0  0  0  0  0  0  0  0  0  0
    7.8046   -2.4275    0.0000 C   0  0  0  0  0  0  0  0  0  0  0  0
    9.1296   -2.2921    0.0000 C   0  0  0  0  0  0  0  0  0  0  0  0
    9.6712   -1.0735    0.0000 C   0  0  0  0  0  0  0  0  0  0  0  0
    8.8878    0.0000    0.0000 C   0  0  0  0  0  0  0  0  0  0  0  0
    7.5629   -0.1451    0.0000 C   0  0  0  0  0  0  0  0  0  0  0  0
    7.0213   -3.5106    0.0000 C   0  0  0  0  0  0  0  0  0  0  0  0
    5.7640   -3.0948    0.0000 C   0  0  0  0  0  0  0  0  0  0  0  0
    4.6035   -3.7621    0.0000 C   0  0  0  0  0  0  0  0  0  0  0  0
    3.4526   -3.0948    0.0000 C   0  0  0  0  0  0  0  0  0  0  0  0
    3.4526   -1.7698    0.0000 C   0  0  0  0  0  0  0  0  0  0  0  0
    4.6035   -1.1025    0.0000 C   0  0  0  0  0  0  0  0  0  0  0  0
    2.3017   -3.7621    0.0000 N   0  0  0  0  0  0  0  0  0  0  0  0
    1.1509   -3.0948    0.0000 C   0  0  0  0  0  0  0  0  0  0  0  0
    0.0000   -3.7621    0.0000 C   0  0  0  0  0  0  0  0  0  0  0  0
    1.1509   -1.7698    0.0000 O   0  0  0  0  0  0  0  0  0  0  0  0
  1  2  1  0  0  0  0
  1  9  1  0  0  0  0
  1 13  2  0  0  0  0
  2  3  2  0  0  0  0
  2  7  1  0  0  0  0
  3  4  1  0  0  0  0
  3  8  1  0  0  0  0
  4  5  2  0  0  0  0
  5  6  1  0  0  0  0
  6  7  2  0  0  0  0
  8  9  1  0  0  0  0
  9 10  2  0  0  0  0
 10 11  1  0  0  0  0
 11 12  2  0  0  0  0
 11 14  1  0  0  0  0
 12 13  1  0  0  0  0
 14 15  1  0  0  0  0
 15 16  1  0  0  0  0
 15 17  2  0  0  0  0
M  END
>  <ActivityOutcome_CPDBAS_Hamster>
active

$$$$



 18 19  0  0  0  0  0  0  0  0  2 V2000
    3.2537   -3.5906    0.0000 C   0  0  0  0  0  0  0  0  0  0  0  0
    3.2537   -2.2607    0.0000 C   0  0  0  0  0  0  0  0  0  0  0  0
    4.4062   -1.5958    0.0000 C   0  0  0  0  0  0  0  0  0  0  0  0
    4.4062   -4.2555    0.0000 O   0  0  0  0  0  0  0  0  0  0  0  0
    2.1011   -4.2555    0.0000 N   0  0  0  0  0  0  0  0  0  0  0  0
    1.9682   -0.2748    0.0000 O   0  0  0  0  0  0  0  0  0  0  0  0
    0.6649    0.0000    0.0000 C   0  0  0  0  0  0  0  0  0  0  0  0
    2.1011   -1.5958    0.0000 C   0  0  0  0  0  0  0  0  0  0  0  0
    0.0000   -1.1525    0.0000 C   0  0  0  0  0  0  0  0  0  0  0  0
    0.8866   -2.1366    0.0000 C   0  0  0  0  0  0  0  0  0  0  0  0
    5.7006   -3.5817    0.0000 O   0  0  0  0  0  0  0  0  0  0  0  0
    7.0038   -3.8654    0.0000 C   0  0  0  0  0  0  0  0  0  0  0  0
    5.5587   -2.2607    0.0000 C   0  0  0  0  0  0  0  0  0  0  0  0
    7.6687   -2.7129    0.0000 C   0  0  0  0  0  0  0  0  0  0  0  0
    6.7733   -1.7199    0.0000 C   0  0  0  0  0  0  0  0  0  0  0  0
    7.5446   -5.0800    0.0000 N   0  3  0  0  0  0  0  0  0  0  0  0
    6.7644   -6.1527    0.0000 O   0  5  0  0  0  0  0  0  0  0  0  0
    8.8656   -5.2130    0.0000 O   0  0  0  0  0  0  0  0  0  0  0  0
  1  2  1  0  0  0  0
  1  5  1  0  0  0  0
  1  4  2  0  0  0  0
  2  3  2  0  0  0  0
  2  8  1  0  0  0  0
  3 13  1  0  0  0  0
  6  7  1  0  0  0  0
  6  8  1  0  0  0  0
  7  9  2  0  0  0  0
  8 10  2  0  0  0  0
  9 10  1  0  0  0  0
 11 12  1  0  0  0  0
 11 13  1  0  0  0  0
 12 14  2  0  0  0  0
 12 16  1  0  0  0  0
 13 15  2  0  0  0  0
 14 15  1  0  0  0  0
 16 17  1  0  0  0  0
 16 18  2  0  0  0  0
M  CHG  2  16   1  17  -1
M  END
>  <ActivityOutcome_CPDBAS_Hamster>
active

$$$$



  6  6  0  0  0  0  0  0  0  0  1 V2000
    1.3304   -1.0738    0.0000 C   0  0  0  0  0  0  0  0  0  0  0  0
    2.1104    0.0000    0.0000 N   0  0  0  0  0  0  0  0  0  0  0  0
    3.3767   -0.4086    0.0000 C   0  0  0  0  0  0  0  0  0  0  0  0
    3.3767   -1.7390    0.0000 N   0  0  0  0  0  0  0  0  0  0  0  0
    2.1104   -2.1509    0.0000 N   0  0  0  0  0  0  0  0  0  0  0  0
    0.0000   -1.0738    0.0000 N   0  0  0  0  0  0  0  0  0  0  0  0
  1  2  1  0  0  0  0
  1  5  2  0  0  0  0
  1  6  1  0  0  0  0
  2  3  2  0  0  0  0
  3  4  1  0  0  0  0
  4  5  1  0  0  0  0
M  END
>  <ActivityOutcome_CPDBAS_Hamster>
inactive

$$$$



 13 13  0  0  0  0  0  0  0  0  1 V2000
    1.1541    0.0000    0.0000 O   0  0  0  0  0  0  0  0  0  0  0  0
    2.3012   -0.6703    0.0000 C   0  0  0  0  0  0  0  0  0  0  0  0
    3.4553    0.0000    0.0000 C   0  0  0  0  0  0  0  0  0  0  0  0
    4.6094   -0.6703    0.0000 C   0  0  0  0  0  0  0  0  0  0  0  0
    4.6094   -1.9972    0.0000 C   0  0  0  0  0  0  0  0  0  0  0  0
    3.4553   -2.6606    0.0000 C   0  0  0  0  0  0  0  0  0  0  0  0
    2.3012   -1.9972    0.0000 C   0  0  0  0  0  0  0  0  0  0  0  0
    1.1541   -2.6606    0.0000 C   0  0  0  0  0  0  0  0  0  0  0  0
    0.4837   -1.5134    0.0000 C   0  0  0  0  0  0  0  0  0  0  0  0
    1.8175   -3.8147    0.0000 C   0  0  0  0  0  0  0  0  0  0  0  0
    0.0000   -3.3309    0.0000 C   0  0  0  0  0  0  0  0  0  0  0  0
    5.7566   -2.6606    0.0000 O   0  0  0  0  0  0  0  0  0  0  0  0
    6.9107   -1.9972    0.0000 C   0  0  0  0  0  0  0  0  0  0  0  0
  1  2  1  0  0  0  0
  2  3  2  0  0  0  0
  2  7  1  0  0  0  0
  3  4  1  0  0  0  0
  4  5  2  0  0  0  0
  5  6  1  0  0  0  0
  5 12  1  0  0  0  0
  6  7  2  0  0  0  0
  7  8  1  0  0  0  0
  8  9  1  0  0  0  0
  8 10  1  0  0  0  0
  8 11  1  0  0  0  0
 12 13  1  0  0  0  0
M  END
>  <ActivityOutcome_CPDBAS_Hamster>
inactive

$$$$



  3  0  0  0  0  0  0  0  0  0  2 V2000
   10.0000   -0.0700    0.0000 Cl  0  5  0  0  0  0  0  0  0  0  0  0
    4.5200    0.0000    0.0000 Cd  0  2  0  0  0  0  0  0  0  0  0  0
    0.0000   -0.3400    0.0000 Cl  0  5  0  0  0  0  0  0  0  0  0  0
M  CHG  3   1  -1   2   2   3  -1
M  END
>  <ActivityOutcome_CPDBAS_Hamster>
inactive

$$$$



  6  4  0  0  0  0  0  0  0  0  2 V2000
    2.6600   -2.6600    0.0000 O   0  0  0  0  0  0  0  0  0  0  0  0
    2.6600   -1.3320    0.0000 S   0  0  0  0  0  0  0  0  0  0  0  0
    2.6600    0.0000    0.0000 O   0  0  0  0  0  0  0  0  0  0  0  0
    1.3280   -1.3320    0.0000 O   0  5  0  0  0  0  0  0  0  0  0  0
    3.9880   -1.3320    0.0000 O   0  5  0  0  0  0  0  0  0  0  0  0
    0.0000   -1.3320    0.0000 Cd  0  2  0  0  0  0  0  0  0  0  0  0
  1  2  2  0  0  0  0
  2  3  2  0  0  0  0
  2  4  1  0  0  0  0
  2  5  1  0  0  0  0
M  CHG  3   4  -1   5  -1   6   2
M  END
>  <ActivityOutcome_CPDBAS_Hamster>
inactive

$$$$



  0  0  0  0  0  0  0  0  0  0  1 V2000
M  END
>  <ActivityOutcome_CPDBAS_Hamster>
inactive

$$$$



 21 22  0  0  0  0  0  0  0  0  1 V2000
    5.7698    0.0000    0.0000 Cl  0  0  0  0  0  0  0  0  0  0  0  0
    5.7698   -1.3315    0.0000 C   0  0  0  0  0  0  0  0  0  0  0  0
    6.9111   -2.0036    0.0000 C   0  0  0  0  0  0  0  0  0  0  0  0
    6.9111   -3.3351    0.0000 C   0  0  0  0  0  0  0  0  0  0  0  0
    5.7698   -3.9945    0.0000 N   0  0  0  0  0  0  0  0  0  0  0  0
    4.6158   -3.3351    0.0000 C   0  0  0  0  0  0  0  0  0  0  0  0
    4.6158   -2.0036    0.0000 N   0  0  0  0  0  0  0  0  0  0  0  0
    3.4619   -3.9945    0.0000 S   0  0  0  0  0  0  0  0  0  0  0  0
    2.3079   -3.3351    0.0000 C   0  0  0  0  0  0  0  0  0  0  0  0
    1.1540   -3.9945    0.0000 C   0  0  0  0  0  0  0  0  0  0  0  0
    1.1540   -5.3260    0.0000 O   0  0  0  0  0  0  0  0  0  0  0  0
    0.0000   -3.3351    0.0000 O   0  0  0  0  0  0  0  0  0  0  0  0
    8.0650   -3.9945    0.0000 N   0  0  0  0  0  0  0  0  0  0  0  0
    9.2190   -3.3351    0.0000 C   0  0  0  0  0  0  0  0  0  0  0  0
    9.2190   -2.0036    0.0000 C   0  0  0  0  0  0  0  0  0  0  0  0
   10.3730   -1.3315    0.0000 C   0  0  0  0  0  0  0  0  0  0  0  0
   11.5269   -2.0036    0.0000 C   0  0  0  0  0  0  0  0  0  0  0  0
   11.5269   -3.3351    0.0000 C   0  0  0  0  0  0  0  0  0  0  0  0
   10.3730   -3.9945    0.0000 C   0  0  0  0  0  0  0  0  0  0  0  0
   10.3730   -5.3260    0.0000 C   0  0  0  0  0  0  0  0  0  0  0  0
   12.6809   -3.9945    0.0000 C   0  0  0  0  0  0  0  0  0  0  0  0
  1  2  1  0  0  0  0
  2  3  2  0  0  0  0
  2  7  1  0  0  0  0
  3  4  1  0  0  0  0
  4  5  2  0  0  0  0
  4 13  1  0  0  0  0
  5  6  1  0  0  0  0
  6  7  2  0  0  0  0
  6  8  1  0  0  0  0
  8  9  1  0  0  0  0
  9 10  1  0  0  0  0
 10 11  2  0  0  0  0
 10 12  1  0  0  0  0
 13 14  1  0  0  0  0
 14 15  2  0  0  0  0
 14 19  1  0  0  0  0
 15 16  1  0  0  0  0
 16 17  2  0  0  0  0
 17 18  1  0  0  0  0
 18 19  2  0  0  0  0
 18 21  1  0  0  0  0
 19 20  1  0  0  0  0
M  END
>  <ActivityOutcome_CPDBAS_Hamster>
inactive

$$$$



  4  3  0  0  0  0  0  0  0  0  1 V2000
    3.4575    0.0000    0.0000 Cl  0  0  0  0  0  0  0  0  0  0  0  0
    2.3061   -0.6638    0.0000 C   0  0  0  0  0  0  0  0  0  0  0  0
    1.1513    0.0000    0.0000 O   0  0  0  0  0  0  0  0  0  0  0  0
    0.0000   -0.6638    0.0000 C   0  0  0  0  0  0  0  0  0  0  0  0
  1  2  1  0  0  0  0
  2  3  1  0  0  0  0
  3  4  1  0  0  0  0
M  END
>  <ActivityOutcome_CPDBAS_Hamster>
active

$$$$



  5  4  0  0  0  0  0  0  0  0  1 V2000
    2.2415   -0.6520    0.0000 C   0  0  0  0  0  0  0  0  0  0  0  0
    1.1191    0.0000    0.0000 C   0  0  0  0  0  0  0  0  0  0  0  0
    3.3606    0.0000    0.0000 C   0  0  0  0  0  0  0  0  0  0  0  0
    0.0000   -0.6520    0.0000 C   0  0  0  0  0  0  0  0  0  0  0  0
    2.2415   -2.0836    0.0000 Cl  0  0  0  0  0  0  0  0  0  0  0  0
  1  2  1  0  0  0  0
  1  3  2  0  0  0  0
  1  5  1  0  0  0  0
  2  4  2  0  0  0  0
M  END
>  <ActivityOutcome_CPDBAS_Hamster>
inactive

$$$$



 21 22  0  0  0  0  0  0  0  0  1 V2000
   12.5806   -1.3138    0.0000 C   0  0  0  0  0  0  0  0  0  0  0  0
   11.2668   -1.3138    0.0000 C   0  0  0  0  0  0  0  0  0  0  0  0
    9.9397   -1.3138    0.0000 O   0  0  0  0  0  0  0  0  0  0  0  0
    5.3083   -2.4683    0.0000 C   0  0  0  0  0  0  0  0  0  0  0  0
    3.9945   -2.4683    0.0000 C   0  0  0  0  0  0  0  0  0  0  0  0
   13.2574   -0.1592    0.0000 O   0  0  0  0  0  0  0  0  0  0  0  0
    3.3177   -1.3138    0.0000 C   0  0  0  0  0  0  0  0  0  0  0  0
    5.9718   -1.3138    0.0000 C   0  0  0  0  0  0  0  0  0  0  0  0
    3.3177   -3.6229    0.0000 C   0  0  0  0  0  0  0  0  0  0  0  0
    5.9585   -3.6229    0.0000 C   0  0  0  0  0  0  0  0  0  0  0  0
   13.2707   -2.4683    0.0000 O   0  0  0  0  0  0  0  0  0  0  0  0
    9.2762   -2.4683    0.0000 C   0  0  0  0  0  0  0  0  0  0  0  0
    1.3403   -2.4683    0.0000 C   0  0  0  0  0  0  0  0  0  0  0  0
    7.9359   -2.4683    0.0000 C   0  0  0  0  0  0  0  0  0  0  0  0
    1.9906   -1.3138    0.0000 C   0  0  0  0  0  0  0  0  0  0  0  0
    1.9906   -3.6229    0.0000 C   0  0  0  0  0  0  0  0  0  0  0  0
    7.2989   -3.6229    0.0000 C   0  0  0  0  0  0  0  0  0  0  0  0
    7.2989   -1.3138    0.0000 C   0  0  0  0  0  0  0  0  0  0  0  0
    0.0000   -2.4683    0.0000 Cl  0  0  0  0  0  0  0  0  0  0  0  0
   11.2668   -2.6674    0.0000 C   0  0  0  0  0  0  0  0  0  0  0  0
   11.2668    0.0000    0.0000 C   0  0  0  0  0  0  0  0  0  0  0  0
  1  2  1  0  0  0  0
  1  6  2  0  0  0  0
  1 11  1  0  0  0  0
  2  3  1  0  0  0  0
  2 20  1  0  0  0  0
  2 21  1  0  0  0  0
  3 12  1  0  0  0  0
  4  8  2  0  0  0  0
  4  5  1  0  0  0  0
  4 10  1  0  0  0  0
  5  7  1  0  0  0  0
  5  9  2  0  0  0  0
  7 15  2  0  0  0  0
  8 18  1  0  0  0  0
  9 16  1  0  0  0  0
 10 17  2  0  0  0  0
 12 14  1  0  0  0  0
 13 16  2  0  0  0  0
 13 19  1  0  0  0  0
 13 15  1  0  0  0  0
 14 17  1  0  0  0  0
 14 18  2  0  0  0  0
M  END
>  <ActivityOutcome_CPDBAS_Hamster>
inactive

$$$$



 11 12  0  0  0  0  0  0  0  0  1 V2000
    0.0000   -2.6606    0.0000 O   0  0  0  0  0  0  0  0  0  0  0  0
    1.1518   -1.9983    0.0000 C   0  0  0  0  0  0  0  0  0  0  0  0
    2.3036   -2.6606    0.0000 O   0  0  0  0  0  0  0  0  0  0  0  0
    3.4554   -1.9983    0.0000 C   0  0  0  0  0  0  0  0  0  0  0  0
    3.4554   -0.6680    0.0000 C   0  0  0  0  0  0  0  0  0  0  0  0
    4.6071    0.0000    0.0000 C   0  0  0  0  0  0  0  0  0  0  0  0
    5.7589   -0.6680    0.0000 C   0  0  0  0  0  0  0  0  0  0  0  0
    5.7589   -1.9983    0.0000 C   0  0  0  0  0  0  0  0  0  0  0  0
    4.6071   -2.6606    0.0000 C   0  0  0  0  0  0  0  0  0  0  0  0
    2.3036    0.0000    0.0000 C   0  0  0  0  0  0  0  0  0  0  0  0
    1.1518   -0.6680    0.0000 C   0  0  0  0  0  0  0  0  0  0  0  0
  1  2  2  0  0  0  0
  2  3  1  0  0  0  0
  2 11  1  0  0  0  0
  3  4  1  0  0  0  0
  4  5  2  0  0  0  0
  4  9  1  0  0  0  0
  5  6  1  0  0  0  0
  5 10  1  0  0  0  0
  6  7  2  0  0  0  0
  7  8  1  0  0  0  0
  8  9  2  0  0  0  0
 10 11  2  0  0  0  0
M  END
>  <ActivityOutcome_CPDBAS_Hamster>
inactive

$$$$



 18 19  0  0  0  0  0  0  0  0  1 V2000
    3.4540    0.0000    0.0000 Cl  0  0  0  0  0  0  0  0  0  0  0  0
    4.6054   -0.6632    0.0000 C   0  0  0  0  0  0  0  0  0  0  0  0
    4.6054   -1.9895    0.0000 C   0  0  0  0  0  0  0  0  0  0  0  0
    5.7567   -2.6527    0.0000 C   0  0  0  0  0  0  0  0  0  0  0  0
    6.9080   -1.9895    0.0000 C   0  0  0  0  0  0  0  0  0  0  0  0
    8.0594   -2.6527    0.0000 C   0  0  0  0  0  0  0  0  0  0  0  0
    8.0594   -3.9882    0.0000 C   0  0  0  0  0  0  0  0  0  0  0  0
    6.9080   -4.6514    0.0000 C   0  0  0  0  0  0  0  0  0  0  0  0
    5.7567   -3.9882    0.0000 C   0  0  0  0  0  0  0  0  0  0  0  0
    9.2107   -4.6514    0.0000 Cl  0  0  0  0  0  0  0  0  0  0  0  0
    3.4540   -2.6527    0.0000 C   0  0  0  0  0  0  0  0  0  0  0  0
    3.4540   -3.9882    0.0000 C   0  0  0  0  0  0  0  0  0  0  0  0
    2.3027   -4.6514    0.0000 C   0  0  0  0  0  0  0  0  0  0  0  0
    1.1513   -3.9882    0.0000 C   0  0  0  0  0  0  0  0  0  0  0  0
    1.1513   -2.6527    0.0000 C   0  0  0  0  0  0  0  0  0  0  0  0
    2.3027   -1.9895    0.0000 C   0  0  0  0  0  0  0  0  0  0  0  0
    0.0000   -4.6514    0.0000 Cl  0  0  0  0  0  0  0  0  0  0  0  0
    5.7567    0.0000    0.0000 Cl  0  0  0  0  0  0  0  0  0  0  0  0
  1  2  1  0  0  0  0
  2  3  2  0  0  0  0
  2 18  1  0  0  0  0
  3  4  1  0  0  0  0
  3 11  1  0  0  0  0
  4  5  2  0  0  0  0
  4  9  1  0  0  0  0
  5  6  1  0  0  0  0
  6  7  2  0  0  0  0
  7  8  1  0  0  0  0
  7 10  1  0  0  0  0
  8  9  2  0  0  0  0
 11 12  2  0  0  0  0
 11 16  1  0  0  0  0
 12 13  1  0  0  0  0
 13 14  2  0  0  0  0
 14 15  1  0  0  0  0
 14 17  1  0  0  0  0
 15 16  2  0  0  0  0
M  END
>  <ActivityOutcome_CPDBAS_Hamster>
active

$$$$



 19 20  0  0  0  0  0  0  0  0  1 V2000
    3.2800   -1.3268    0.0000 Cl  0  0  0  0  0  0  0  0  0  0  0  0
    4.6068   -1.3268    0.0000 C   0  0  0  0  0  0  0  0  0  0  0  0
    4.6068   -2.6535    0.0000 C   0  0  0  0  0  0  0  0  0  0  0  0
    5.7585   -3.3169    0.0000 C   0  0  0  0  0  0  0  0  0  0  0  0
    6.9102   -2.6535    0.0000 C   0  0  0  0  0  0  0  0  0  0  0  0
    8.0619   -3.3169    0.0000 C   0  0  0  0  0  0  0  0  0  0  0  0
    8.0619   -4.6529    0.0000 C   0  0  0  0  0  0  0  0  0  0  0  0
    6.9102   -5.3162    0.0000 C   0  0  0  0  0  0  0  0  0  0  0  0
    5.7585   -4.6529    0.0000 C   0  0  0  0  0  0  0  0  0  0  0  0
    9.2136   -5.3162    0.0000 Cl  0  0  0  0  0  0  0  0  0  0  0  0
    3.4551   -3.3169    0.0000 C   0  0  0  0  0  0  0  0  0  0  0  0
    3.4551   -4.6529    0.0000 C   0  0  0  0  0  0  0  0  0  0  0  0
    2.3034   -5.3162    0.0000 C   0  0  0  0  0  0  0  0  0  0  0  0
    1.1517   -4.6529    0.0000 C   0  0  0  0  0  0  0  0  0  0  0  0
    1.1517   -3.3169    0.0000 C   0  0  0  0  0  0  0  0  0  0  0  0
    2.3034   -2.6535    0.0000 C   0  0  0  0  0  0  0  0  0  0  0  0
    0.0000   -5.3162    0.0000 Cl  0  0  0  0  0  0  0  0  0  0  0  0
    4.6068    0.0000    0.0000 Cl  0  0  0  0  0  0  0  0  0  0  0  0
    5.9336   -1.3268    0.0000 Cl  0  0  0  0  0  0  0  0  0  0  0  0
  1  2  1  0  0  0  0
  2  3  1  0  0  0  0
  2 18  1  0  0  0  0
  2 19  1  0  0  0  0
  3  4  1  0  0  0  0
  3 11  1  0  0  0  0
  4  5  2  0  0  0  0
  4  9  1  0  0  0  0
  5  6  1  0  0  0  0
  6  7  2  0  0  0  0
  7  8  1  0  0  0  0
  7 10  1  0  0  0  0
  8  9  2  0  0  0  0
 11 12  2  0  0  0  0
 11 16  1  0  0  0  0
 12 13  1  0  0  0  0
 13 14  2  0  0  0  0
 14 15  1  0  0  0  0
 14 17  1  0  0  0  0
 15 16  2  0  0  0  0
M  END
>  <ActivityOutcome_CPDBAS_Hamster>
inactive

$$$$



  9  8  0  0  0  0  0  0  0  0  1 V2000
    2.6588    0.0000    0.0000 C   0  0  0  0  0  0  0  0  0  0  0  0
    1.9976   -1.1548    0.0000 C   0  0  0  0  0  0  0  0  0  0  0  0
    2.6588   -2.3049    0.0000 C   0  0  0  0  0  0  0  0  0  0  0  0
    1.9976   -3.4597    0.0000 N   0  0  0  0  0  0  0  0  0  0  0  0
    2.6588   -4.6098    0.0000 C   0  0  0  0  0  0  0  0  0  0  0  0
    3.9905   -4.6098    0.0000 C   0  0  0  0  0  0  0  0  0  0  0  0
    4.6563   -3.4597    0.0000 C   0  0  0  0  0  0  0  0  0  0  0  0
    0.6659   -3.4597    0.0000 N   0  0  0  0  0  0  0  0  0  0  0  0
    0.0000   -2.3049    0.0000 O   0  0  0  0  0  0  0  0  0  0  0  0
  1  2  2  0  0  0  0
  2  3  1  0  0  0  0
  3  4  1  0  0  0  0
  4  5  1  0  0  0  0
  4  8  1  0  0  0  0
  5  6  1  0  0  0  0
  6  7  2  0  0  0  0
  8  9  2  0  0  0  0
M  END
>  <ActivityOutcome_CPDBAS_Hamster>
active

$$$$



 19 23  0  0  0  0  0  0  0  0  1 V2000
    1.2310   -2.6401    0.0000 C   0  0  0  0  0  0  0  0  0  0  0  0
    0.0000   -2.6401    0.0000 O   0  0  0  0  0  0  0  0  0  0  0  0
    0.6007   -3.6931    0.0000 C   0  0  0  0  0  0  0  0  0  0  0  0
    2.2470   -2.9219    0.0000 C   0  0  0  0  0  0  0  0  0  0  0  0
    3.4113   -2.7068    0.0000 C   0  0  0  0  0  0  0  0  0  0  0  0
    1.7946   -3.9008    0.0000 C   0  0  0  0  0  0  0  0  0  0  0  0
    2.1061   -5.0280    0.0000 C   0  0  0  0  0  0  0  0  0  0  0  0
    3.3001   -3.6931    0.0000 C   0  0  0  0  0  0  0  0  0  0  0  0
    4.8500   -2.0023    0.0000 C   0  0  0  0  0  0  0  0  0  0  0  0
    4.3902   -3.1295    0.0000 C   0  0  0  0  0  0  0  0  0  0  0  0
    5.6954   -3.7599    0.0000 C   0  0  0  0  0  0  0  0  0  0  0  0
    6.3258   -2.7068    0.0000 C   0  0  0  0  0  0  0  0  0  0  0  0
    7.4159   -2.4250    0.0000 Cl  0  0  0  0  0  0  0  0  0  0  0  0
    6.1478   -4.8203    0.0000 Cl  0  0  0  0  0  0  0  0  0  0  0  0
    3.9749   -4.3235    0.0000 Cl  0  0  0  0  0  0  0  0  0  0  0  0
    4.3902   -0.7787    0.0000 C   0  0  0  0  0  0  0  0  0  0  0  0
    5.1318    0.0000    0.0000 Cl  0  0  0  0  0  0  0  0  0  0  0  0
    3.5522   -0.0742    0.0000 Cl  0  0  0  0  0  0  0  0  0  0  0  0
    5.6583   -1.1643    0.0000 Cl  0  0  0  0  0  0  0  0  0  0  0  0
  1  2  1  0  0  0  0
  1  3  1  0  0  0  0
  1  4  1  0  0  0  0
  2  3  1  0  0  0  0
  3  6  1  0  0  0  0
  4  5  1  0  0  0  0
  4  7  1  0  0  0  0
  5  9  1  0  0  0  0
  5  8  1  0  0  0  0
  6  7  1  0  0  0  0
  6  8  1  0  0  0  0
  8 10  1  0  0  0  0
  9 12  1  0  0  0  0
  9 16  1  0  0  0  0
  9 19  1  0  0  0  0
 10 11  1  0  0  0  0
 10 16  1  0  0  0  0
 10 15  1  0  0  0  0
 11 12  2  0  0  0  0
 11 14  1  0  0  0  0
 12 13  1  0  0  0  0
 16 17  1  0  0  0  0
 16 18  1  0  0  0  0
M  END
>  <ActivityOutcome_CPDBAS_Hamster>
inactive

$$$$



  6  5  0  0  0  0  0  0  0  0  1 V2000
    1.3307    0.0000    0.0000 O   0  0  0  0  0  0  0  0  0  0  0  0
    1.9943   -1.1509    0.0000 C   0  0  0  0  0  0  0  0  0  0  0  0
    1.3307   -2.3053    0.0000 N   0  0  0  0  0  0  0  0  0  0  0  0
    1.9943   -3.4563    0.0000 C   0  0  0  0  0  0  0  0  0  0  0  0
    0.0000   -2.3053    0.0000 C   0  0  0  0  0  0  0  0  0  0  0  0
    3.3250   -1.1509    0.0000 Cl  0  0  0  0  0  0  0  0  0  0  0  0
  1  2  2  0  0  0  0
  2  3  1  0  0  0  0
  2  6  1  0  0  0  0
  3  4  1  0  0  0  0
  3  5  1  0  0  0  0
M  END
>  <ActivityOutcome_CPDBAS_Hamster>
active

$$$$



  4  3  0  0  0  0  0  0  0  0  1 V2000
    1.9950    0.0000    0.0000 C   0  0  0  0  0  0  0  0  0  0  0  0
    1.3292   -1.1518    0.0000 N   0  0  0  0  0  0  0  0  0  0  0  0
    1.9950   -2.3037    0.0000 C   0  0  0  0  0  0  0  0  0  0  0  0
    0.0000   -1.1518    0.0000 N   0  0  0  0  0  0  0  0  0  0  0  0
  1  2  1  0  0  0  0
  2  3  1  0  0  0  0
  2  4  1  0  0  0  0
M  END
>  <ActivityOutcome_CPDBAS_Hamster>
active

$$$$



  8  5  0  0  0  0  0  0  0  0  1 V2000
    2.7482   -0.6668    0.0000 N   0  0  0  0  0  0  0  0  0  0  0  0
    3.9000    0.0000    0.0000 N   0  0  0  0  0  0  0  0  0  0  0  0
    5.0518   -0.6668    0.0000 C   0  0  0  0  0  0  0  0  0  0  0  0
    1.5964    0.0000    0.0000 C   0  0  0  0  0  0  0  0  0  0  0  0
    2.6623   -1.9955    0.0000 H   0  0  0  0  0  0  0  0  0  0  0  0
    3.9909   -1.9955    0.0000 Cl  0  0  0  0  0  0  0  0  0  0  0  0
    0.0000   -1.9955    0.0000 H   0  0  0  0  0  0  0  0  0  0  0  0
    1.3286   -1.9955    0.0000 Cl  0  0  0  0  0  0  0  0  0  0  0  0
  1  2  1  0  0  0  0
  1  4  1  0  0  0  0
  2  3  1  0  0  0  0
  5  6  1  0  0  0  0
  7  8  1  0  0  0  0
M  END
>  <ActivityOutcome_CPDBAS_Hamster>
active

$$$$



  3  2  0  0  0  0  0  0  0  0  1 V2000
    2.3030   -0.6656    0.0000 C   0  0  0  0  0  0  0  0  0  0  0  0
    1.1515    0.0000    0.0000 C   0  0  0  0  0  0  0  0  0  0  0  0
    0.0000   -0.6656    0.0000 O   0  0  0  0  0  0  0  0  0  0  0  0
  1  2  1  0  0  0  0
  2  3  1  0  0  0  0
M  END
>  <ActivityOutcome_CPDBAS_Hamster>
inactive

$$$$



 11 10  0  0  0  0  0  0  0  0  1 V2000
    2.2999   -3.9852    0.0000 O   0  0  0  0  0  0  0  0  0  0  0  0
    2.2999   -2.6591    0.0000 C   0  0  0  0  0  0  0  0  0  0  0  0
    1.1534   -1.9891    0.0000 N   0  0  0  0  0  0  0  0  0  0  0  0
    1.1534   -0.6630    0.0000 C   0  0  0  0  0  0  0  0  0  0  0  0
    0.0000    0.0000    0.0000 C   0  0  0  0  0  0  0  0  0  0  0  0
    0.0000   -2.6591    0.0000 N   0  0  0  0  0  0  0  0  0  0  0  0
    0.0000   -3.9852    0.0000 O   0  0  0  0  0  0  0  0  0  0  0  0
    3.4534   -1.9891    0.0000 N   0  0  0  0  0  0  0  0  0  0  0  0
    4.6068   -2.6591    0.0000 C   0  0  0  0  0  0  0  0  0  0  0  0
    5.7533   -1.9891    0.0000 C   0  0  0  0  0  0  0  0  0  0  0  0
    6.9067   -2.6591    0.0000 O   0  0  0  0  0  0  0  0  0  0  0  0
  1  2  2  0  0  0  0
  2  3  1  0  0  0  0
  2  8  1  0  0  0  0
  3  4  1  0  0  0  0
  3  6  1  0  0  0  0
  4  5  1  0  0  0  0
  6  7  2  0  0  0  0
  8  9  1  0  0  0  0
  9 10  1  0  0  0  0
 10 11  1  0  0  0  0
M  END
>  <ActivityOutcome_CPDBAS_Hamster>
active

$$$$



 12 11  0  0  0  0  0  0  0  0  1 V2000
    2.3006   -3.9862    0.0000 O   0  0  0  0  0  0  0  0  0  0  0  0
    2.3006   -2.6598    0.0000 C   0  0  0  0  0  0  0  0  0  0  0  0
    1.1537   -1.9897    0.0000 N   0  0  0  0  0  0  0  0  0  0  0  0
    1.1537   -0.6632    0.0000 C   0  0  0  0  0  0  0  0  0  0  0  0
    0.0000    0.0000    0.0000 C   0  0  0  0  0  0  0  0  0  0  0  0
    0.0000   -2.6598    0.0000 N   0  0  0  0  0  0  0  0  0  0  0  0
    0.0000   -3.9862    0.0000 O   0  0  0  0  0  0  0  0  0  0  0  0
    3.4543   -1.9897    0.0000 N   0  0  0  0  0  0  0  0  0  0  0  0
    4.6080   -2.6598    0.0000 C   0  0  0  0  0  0  0  0  0  0  0  0
    5.7548   -1.9897    0.0000 C   0  0  0  0  0  0  0  0  0  0  0  0
    5.7548   -0.6632    0.0000 O   0  0  0  0  0  0  0  0  0  0  0  0
    6.9086   -2.6598    0.0000 C   0  0  0  0  0  0  0  0  0  0  0  0
  1  2  2  0  0  0  0
  2  3  1  0  0  0  0
  2  8  1  0  0  0  0
  3  4  1  0  0  0  0
  3  6  1  0  0  0  0
  4  5  1  0  0  0  0
  6  7  2  0  0  0  0
  8  9  1  0  0  0  0
  9 10  1  0  0  0  0
 10 11  2  0  0  0  0
 10 12  1  0  0  0  0
M  END
>  <ActivityOutcome_CPDBAS_Hamster>
active

$$$$



  2  1  0  0  0  0  0  0  0  0  1 V2000
    0.0000    0.0000    0.0000 C   0  0  0  0  0  0  0  0  0  0  0  0
    1.3300    0.0000    0.0000 O   0  0  0  0  0  0  0  0  0  0  0  0
  1  2  2  0  0  0  0
M  END
>  <ActivityOutcome_CPDBAS_Hamster>
inactive

$$$$



 17 18  0  0  0  0  0  0  0  0  2 V2000
   11.3714   -1.9900    0.0000 O   0  5  0  0  0  0  0  0  0  0  0  0
   10.2229   -1.3304    0.0000 N   0  3  0  0  0  0  0  0  0  0  0  0
   10.2229    0.0000    0.0000 O   0  0  0  0  0  0  0  0  0  0  0  0
    9.0743   -1.9900    0.0000 C   0  0  0  0  0  0  0  0  0  0  0  0
    8.9265   -3.3204    0.0000 C   0  0  0  0  0  0  0  0  0  0  0  0
    7.6302   -3.5933    0.0000 C   0  0  0  0  0  0  0  0  0  0  0  0
    6.9706   -2.4448    0.0000 C   0  0  0  0  0  0  0  0  0  0  0  0
    7.8576   -1.4555    0.0000 O   0  0  0  0  0  0  0  0  0  0  0  0
    5.6402   -2.3084    0.0000 C   0  0  0  0  0  0  0  0  0  0  0  0
    4.7532   -3.2863    0.0000 C   0  0  0  0  0  0  0  0  0  0  0  0
    3.5365   -2.7519    0.0000 S   0  0  0  0  0  0  0  0  0  0  0  0
    3.6729   -1.4328    0.0000 C   0  0  0  0  0  0  0  0  0  0  0  0
    4.9807   -1.1485    0.0000 N   0  0  0  0  0  0  0  0  0  0  0  0
    2.6950   -0.5345    0.0000 N   0  0  0  0  0  0  0  0  0  0  0  0
    1.4442   -1.0121    0.0000 N   0  0  0  0  0  0  0  0  0  0  0  0
    1.2395   -2.3311    0.0000 C   0  0  0  0  0  0  0  0  0  0  0  0
    0.0000   -2.8087    0.0000 O   0  0  0  0  0  0  0  0  0  0  0  0
  1  2  1  0  0  0  0
  2  3  2  0  0  0  0
  2  4  1  0  0  0  0
  4  5  2  0  0  0  0
  4  8  1  0  0  0  0
  5  6  1  0  0  0  0
  6  7  2  0  0  0  0
  7  8  1  0  0  0  0
  7  9  1  0  0  0  0
  9 10  2  0  0  0  0
  9 13  1  0  0  0  0
 10 11  1  0  0  0  0
 11 12  1  0  0  0  0
 12 13  2  0  0  0  0
 12 14  1  0  0  0  0
 14 15  1  0  0  0  0
 15 16  1  0  0  0  0
 16 17  2  0  0  0  0
M  CHG  2   1  -1   2   1
M  END
>  <ActivityOutcome_CPDBAS_Hamster>
active

$$$$



  7  7  0  0  0  0  0  0  0  0  1 V2000
    0.0000   -1.5998    0.0000 O   0  0  0  0  0  0  0  0  0  0  0  0
    1.1503   -2.2653    0.0000 C   0  0  0  0  0  0  0  0  0  0  0  0
    2.3050   -1.5998    0.0000 C   0  0  0  0  0  0  0  0  0  0  0  0
    2.4416   -0.2777    0.0000 C   0  0  0  0  0  0  0  0  0  0  0  0
    3.7417    0.0000    0.0000 C   0  0  0  0  0  0  0  0  0  0  0  0
    4.4072   -1.1547    0.0000 C   0  0  0  0  0  0  0  0  0  0  0  0
    3.5169   -2.1419    0.0000 O   0  0  0  0  0  0  0  0  0  0  0  0
  1  2  2  0  0  0  0
  2  3  1  0  0  0  0
  3  4  2  0  0  0  0
  3  7  1  0  0  0  0
  4  5  1  0  0  0  0
  5  6  2  0  0  0  0
  6  7  1  0  0  0  0
M  END
>  <ActivityOutcome_CPDBAS_Hamster>
inactive

$$$$



  5  5  0  0  0  0  0  0  0  0  1 V2000
    0.0000   -1.1519    0.0000 O   0  0  0  0  0  0  0  0  0  0  0  0
    1.1519   -1.8168    0.0000 C   0  0  0  0  0  0  0  0  0  0  0  0
    2.3037   -1.1519    0.0000 C   0  0  0  0  0  0  0  0  0  0  0  0
    2.9687    0.0000    0.0000 C   0  0  0  0  0  0  0  0  0  0  0  0
    3.6336   -1.1519    0.0000 O   0  0  0  0  0  0  0  0  0  0  0  0
  1  2  1  0  0  0  0
  2  3  1  0  0  0  0
  3  4  1  0  0  0  0
  3  5  1  0  0  0  0
  4  5  1  0  0  0  0
M  END
>  <ActivityOutcome_CPDBAS_Hamster>
active

$$$$



 24 26  0  0  1  0  0  0  0  0  1 V2000
    6.2320   -1.0924    0.0000 O   0  0  0  0  0  0  0  0  0  0  0  0
    5.8471   -2.3097    0.0000 C   0  0  0  0  0  0  0  0  0  0  0  0
    4.6298   -2.7050    0.0000 C   0  0  0  0  0  0  0  0  0  0  0  0
    4.6298   -3.9743    0.0000 C   0  0  0  0  0  0  0  0  0  0  0  0
    5.8471   -4.3593    0.0000 O   0  0  0  0  0  0  0  0  0  0  0  0
    6.5857   -3.3293    0.0000 C   0  0  0  0  0  0  0  0  0  0  0  0
    7.2308   -2.2369    0.0000 C   0  0  0  0  0  0  0  0  0  0  0  0
    8.5001   -2.2369    0.0000 C   0  0  0  0  0  0  0  0  0  0  0  0
    9.1347   -3.3293    0.0000 C   0  0  0  0  0  0  0  0  0  0  0  0
   10.4040   -3.3293    0.0000 O   0  0  0  0  0  0  0  0  0  0  0  0
    8.5001   -4.4321    0.0000 C   0  0  0  0  0  0  0  0  0  0  0  0
    7.2308   -4.4321    0.0000 C   0  0  0  0  0  0  0  0  0  0  0  0
    6.5857   -5.5453    0.0000 C   0  0  0  0  0  0  0  0  0  0  0  0
    7.0019   -0.9780    0.0000 O   0  0  0  0  0  0  0  0  0  0  0  0
    7.9799   -0.1665    0.0000 C   0  0  0  0  0  0  0  0  0  0  0  0
    3.5374   -4.6090    0.0000 C   0  0  0  0  0  0  0  0  0  0  0  0
    3.5374   -5.8783    0.0000 Cl  0  0  0  0  0  0  0  0  0  0  0  0
    2.4241   -3.9743    0.0000 C   0  0  0  0  0  0  0  0  0  0  0  0
    1.3213   -4.6090    0.0000 O   0  0  0  0  0  0  0  0  0  0  0  0
    0.0000   -3.1316    0.0000 C   0  0  0  0  0  0  0  0  0  0  0  0
    2.4241   -2.7050    0.0000 C   0  0  0  0  0  0  0  0  0  0  0  0
    3.5374   -2.0600    0.0000 C   0  0  0  0  0  0  0  0  0  0  0  0
    3.5374   -0.7907    0.0000 O   0  0  0  0  0  0  0  0  0  0  0  0
    1.6334    0.0000    0.0000 C   0  0  0  0  0  0  0  0  0  0  0  0
  1  2  2  0  0  0  0
  2  3  1  0  0  0  0
  6  2  1  1  0  0  0
  3  4  2  0  0  0  0
  3 22  1  0  0  0  0
  4  5  1  0  0  0  0
  4 16  1  0  0  0  0
  6  5  1  6  0  0  0
  6  7  1  0  0  0  0
  6 12  1  0  0  0  0
  7  8  2  0  0  0  0
  7 14  1  0  0  0  0
  8  9  1  0  0  0  0
  9 10  2  0  0  0  0
  9 11  1  0  0  0  0
 11 12  1  0  0  0  0
 12 13  1  1  0  0  0
 14 15  1  0  0  0  0
 16 17  1  0  0  0  0
 16 18  2  0  0  0  0
 18 19  1  0  0  0  0
 18 21  1  0  0  0  0
 19 20  1  0  0  0  0
 21 22  2  0  0  0  0
 22 23  1  0  0  0  0
 23 24  1  0  0  0  0
M  END
>  <ActivityOutcome_CPDBAS_Hamster>
inactive

$$$$



 12 12  0  0  0  0  0  0  0  0  1 V2000
    0.0000   -2.3036    0.0000 Cl  0  0  0  0  0  0  0  0  0  0  0  0
    1.3300   -2.3036    0.0000 C   0  0  0  0  0  0  0  0  0  0  0  0
    1.9950   -1.1491    0.0000 C   0  0  0  0  0  0  0  0  0  0  0  0
    3.3250   -1.1491    0.0000 C   0  0  0  0  0  0  0  0  0  0  0  0
    3.9901   -2.3036    0.0000 C   0  0  0  0  0  0  0  0  0  0  0  0
    3.3250   -3.4581    0.0000 C   0  0  0  0  0  0  0  0  0  0  0  0
    1.9950   -3.4581    0.0000 C   0  0  0  0  0  0  0  0  0  0  0  0
    1.3300   -4.6072    0.0000 Cl  0  0  0  0  0  0  0  0  0  0  0  0
    3.9901   -4.6072    0.0000 Cl  0  0  0  0  0  0  0  0  0  0  0  0
    5.3201   -2.3036    0.0000 Cl  0  0  0  0  0  0  0  0  0  0  0  0
    3.9901    0.0000    0.0000 Cl  0  0  0  0  0  0  0  0  0  0  0  0
    1.3300    0.0000    0.0000 Cl  0  0  0  0  0  0  0  0  0  0  0  0
  1  2  1  0  0  0  0
  2  3  2  0  0  0  0
  2  7  1  0  0  0  0
  3  4  1  0  0  0  0
  3 12  1  0  0  0  0
  4  5  2  0  0  0  0
  4 11  1  0  0  0  0
  5  6  1  0  0  0  0
  5 10  1  0  0  0  0
  6  7  2  0  0  0  0
  6  9  1  0  0  0  0
  7  8  1  0  0  0  0
M  END
>  <ActivityOutcome_CPDBAS_Hamster>
active

$$$$



  2  1  0  0  0  0  0  0  0  0  1 V2000
    0.0000    0.0000    0.0000 N   0  0  0  0  0  0  0  0  0  0  0  0
    1.3300    0.0000    0.0000 N   0  0  0  0  0  0  0  0  0  0  0  0
  1  2  1  0  0  0  0
M  END
>  <ActivityOutcome_CPDBAS_Hamster>
active

$$$$



  7  5  0  0  0  0  0  0  0  0  1 V2000
    3.9900   -2.6600    0.0000 O   0  0  0  0  0  0  0  0  0  0  0  0
    3.9900   -1.3300    0.0000 S   0  0  0  0  0  0  0  0  0  0  0  0
    2.6600   -1.3300    0.0000 O   0  0  0  0  0  0  0  0  0  0  0  0
    5.3200   -1.3300    0.0000 O   0  0  0  0  0  0  0  0  0  0  0  0
    3.9900    0.0000    0.0000 O   0  0  0  0  0  0  0  0  0  0  0  0
    0.0000   -1.3300    0.0000 N   0  0  0  0  0  0  0  0  0  0  0  0
    1.3300   -1.3300    0.0000 N   0  0  0  0  0  0  0  0  0  0  0  0
  1  2  1  0  0  0  0
  2  3  2  0  0  0  0
  2  4  2  0  0  0  0
  2  5  1  0  0  0  0
  6  7  1  0  0  0  0
M  END
>  <ActivityOutcome_CPDBAS_Hamster>
active

$$$$



 18 20  0  0  0  0  0  0  0  0  1 V2000
    0.0000   -2.3030    0.0000 C   0  0  0  0  0  0  0  0  0  0  0  0
    1.3313   -2.3030    0.0000 C   0  0  0  0  0  0  0  0  0  0  0  0
    1.9920   -3.4593    0.0000 O   0  0  0  0  0  0  0  0  0  0  0  0
    1.9920   -1.1564    0.0000 N   0  0  0  0  0  0  0  0  0  0  0  0
    1.3313    0.0000    0.0000 O   0  0  0  0  0  0  0  0  0  0  0  0
    3.3233   -1.1564    0.0000 C   0  0  0  0  0  0  0  0  0  0  0  0
    3.9938   -2.3030    0.0000 C   0  0  0  0  0  0  0  0  0  0  0  0
    5.3251   -2.3030    0.0000 C   0  0  0  0  0  0  0  0  0  0  0  0
    5.9858   -1.1564    0.0000 C   0  0  0  0  0  0  0  0  0  0  0  0
    5.3251    0.0000    0.0000 C   0  0  0  0  0  0  0  0  0  0  0  0
    3.9938    0.0000    0.0000 C   0  0  0  0  0  0  0  0  0  0  0  0
    7.2880   -1.4284    0.0000 C   0  0  0  0  0  0  0  0  0  0  0  0
    8.3666   -0.6511    0.0000 C   0  0  0  0  0  0  0  0  0  0  0  0
    9.5812   -1.1952    0.0000 C   0  0  0  0  0  0  0  0  0  0  0  0
    9.7173   -2.5168    0.0000 C   0  0  0  0  0  0  0  0  0  0  0  0
    8.6387   -3.2942    0.0000 C   0  0  0  0  0  0  0  0  0  0  0  0
    7.4240   -2.7500    0.0000 C   0  0  0  0  0  0  0  0  0  0  0  0
    6.2093   -3.2942    0.0000 C   0  0  0  0  0  0  0  0  0  0  0  0
  1  2  1  0  0  0  0
  2  3  2  0  0  0  0
  2  4  1  0  0  0  0
  4  5  1  0  0  0  0
  4  6  1  0  0  0  0
  6  7  2  0  0  0  0
  6 11  1  0  0  0  0
  7  8  1  0  0  0  0
  8  9  2  0  0  0  0
  8 18  1  0  0  0  0
  9 10  1  0  0  0  0
  9 12  1  0  0  0  0
 10 11  2  0  0  0  0
 12 13  2  0  0  0  0
 12 17  1  0  0  0  0
 13 14  1  0  0  0  0
 14 15  2  0  0  0  0
 15 16  1  0  0  0  0
 16 17  2  0  0  0  0
 17 18  1  0  0  0  0
M  END
>  <ActivityOutcome_CPDBAS_Hamster>
active

$$$$



  5  4  0  0  0  0  0  0  0  0  1 V2000
    0.0000   -0.6638    0.0000 O   0  0  0  0  0  0  0  0  0  0  0  0
    1.1525    0.0000    0.0000 C   0  0  0  0  0  0  0  0  0  0  0  0
    2.3050   -0.6638    0.0000 C   0  0  0  0  0  0  0  0  0  0  0  0
    3.4575    0.0000    0.0000 N   0  0  0  0  0  0  0  0  0  0  0  0
    4.6099   -0.6638    0.0000 N   0  0  0  0  0  0  0  0  0  0  0  0
  1  2  1  0  0  0  0
  2  3  1  0  0  0  0
  3  4  1  0  0  0  0
  4  5  1  0  0  0  0
M  END
>  <ActivityOutcome_CPDBAS_Hamster>
inactive

$$$$



 10 10  0  0  0  0  0  0  0  0  1 V2000
    4.6545   -3.4536    0.0000 O   0  0  0  0  0  0  0  0  0  0  0  0
    3.9889   -2.3040    0.0000 C   0  0  0  0  0  0  0  0  0  0  0  0
    2.6577   -2.3040    0.0000 C   0  0  0  0  0  0  0  0  0  0  0  0
    1.9968   -3.4536    0.0000 C   0  0  0  0  0  0  0  0  0  0  0  0
    0.6656   -3.4536    0.0000 C   0  0  0  0  0  0  0  0  0  0  0  0
    0.0000   -2.3040    0.0000 N   0  0  0  0  0  0  0  0  0  0  0  0
    0.6656   -1.1497    0.0000 C   0  0  0  0  0  0  0  0  0  0  0  0
    1.9968   -1.1497    0.0000 C   0  0  0  0  0  0  0  0  0  0  0  0
    4.6545   -1.1497    0.0000 N   0  0  0  0  0  0  0  0  0  0  0  0
    3.9889    0.0000    0.0000 N   0  0  0  0  0  0  0  0  0  0  0  0
  1  2  2  0  0  0  0
  2  3  1  0  0  0  0
  2  9  1  0  0  0  0
  3  4  2  0  0  0  0
  3  8  1  0  0  0  0
  4  5  1  0  0  0  0
  5  6  2  0  0  0  0
  6  7  1  0  0  0  0
  7  8  2  0  0  0  0
  9 10  1  0  0  0  0
M  END
>  <ActivityOutcome_CPDBAS_Hamster>
inactive

$$$$



  9  9  0  0  0  0  0  0  0  0  1 V2000
    0.0000   -2.3037    0.0000 O   0  0  0  0  0  0  0  0  0  0  0  0
    0.6655   -1.1542    0.0000 C   0  0  0  0  0  0  0  0  0  0  0  0
    0.0000    0.0000    0.0000 O   0  0  0  0  0  0  0  0  0  0  0  0
    1.9965   -1.1542    0.0000 C   0  0  0  0  0  0  0  0  0  0  0  0
    2.6574    0.0000    0.0000 C   0  0  0  0  0  0  0  0  0  0  0  0
    3.9884    0.0000    0.0000 C   0  0  0  0  0  0  0  0  0  0  0  0
    4.6539   -1.1542    0.0000 N   0  0  0  0  0  0  0  0  0  0  0  0
    3.9884   -2.3037    0.0000 C   0  0  0  0  0  0  0  0  0  0  0  0
    2.6574   -2.3037    0.0000 C   0  0  0  0  0  0  0  0  0  0  0  0
  1  2  1  0  0  0  0
  2  3  2  0  0  0  0
  2  4  1  0  0  0  0
  4  5  2  0  0  0  0
  4  9  1  0  0  0  0
  5  6  1  0  0  0  0
  6  7  2  0  0  0  0
  7  8  1  0  0  0  0
  8  9  2  0  0  0  0
M  END
>  <ActivityOutcome_CPDBAS_Hamster>
inactive

$$$$



 14 14  0  0  0  0  0  0  0  0  1 V2000
    3.4524   -0.6629    0.0000 O   0  0  0  0  0  0  0  0  0  0  0  0
    3.4524   -1.9978    0.0000 C   0  0  0  0  0  0  0  0  0  0  0  0
    4.6031   -2.6606    0.0000 N   0  0  0  0  0  0  0  0  0  0  0  0
    5.7539   -1.9978    0.0000 C   0  0  0  0  0  0  0  0  0  0  0  0
    5.7539   -0.6629    0.0000 C   0  0  0  0  0  0  0  0  0  0  0  0
    6.9047    0.0000    0.0000 C   0  0  0  0  0  0  0  0  0  0  0  0
    8.0555   -0.6629    0.0000 C   0  0  0  0  0  0  0  0  0  0  0  0
    8.0555   -1.9978    0.0000 C   0  0  0  0  0  0  0  0  0  0  0  0
    6.9047   -2.6606    0.0000 C   0  0  0  0  0  0  0  0  0  0  0  0
    9.2063   -2.6606    0.0000 Cl  0  0  0  0  0  0  0  0  0  0  0  0
    2.3016   -2.6606    0.0000 O   0  0  0  0  0  0  0  0  0  0  0  0
    1.1508   -1.9978    0.0000 C   0  0  0  0  0  0  0  0  0  0  0  0
    0.0000   -2.6606    0.0000 C   0  0  0  0  0  0  0  0  0  0  0  0
    1.1508   -0.6629    0.0000 C   0  0  0  0  0  0  0  0  0  0  0  0
  1  2  2  0  0  0  0
  2  3  1  0  0  0  0
  2 11  1  0  0  0  0
  3  4  1  0  0  0  0
  4  5  2  0  0  0  0
  4  9  1  0  0  0  0
  5  6  1  0  0  0  0
  6  7  2  0  0  0  0
  7  8  1  0  0  0  0
  8  9  2  0  0  0  0
  8 10  1  0  0  0  0
 11 12  1  0  0  0  0
 12 13  1  0  0  0  0
 12 14  1  0  0  0  0
M  END
>  <ActivityOutcome_CPDBAS_Hamster>
inactive

$$$$



 13 13  0  0  0  0  0  0  0  0  1 V2000
    3.4601   -0.6694    0.0000 O   0  0  0  0  0  0  0  0  0  0  0  0
    3.4601   -2.0002    0.0000 C   0  0  0  0  0  0  0  0  0  0  0  0
    4.6054   -2.6616    0.0000 N   0  0  0  0  0  0  0  0  0  0  0  0
    5.7587   -2.0002    0.0000 C   0  0  0  0  0  0  0  0  0  0  0  0
    5.7587   -0.6694    0.0000 C   0  0  0  0  0  0  0  0  0  0  0  0
    6.9121    0.0000    0.0000 C   0  0  0  0  0  0  0  0  0  0  0  0
    8.0654   -0.6694    0.0000 C   0  0  0  0  0  0  0  0  0  0  0  0
    8.0654   -2.0002    0.0000 C   0  0  0  0  0  0  0  0  0  0  0  0
    6.9121   -2.6616    0.0000 C   0  0  0  0  0  0  0  0  0  0  0  0
    2.3067   -2.6616    0.0000 O   0  0  0  0  0  0  0  0  0  0  0  0
    1.1534   -2.0002    0.0000 C   0  0  0  0  0  0  0  0  0  0  0  0
    0.0000   -2.6616    0.0000 C   0  0  0  0  0  0  0  0  0  0  0  0
    1.1534   -0.6694    0.0000 C   0  0  0  0  0  0  0  0  0  0  0  0
  1  2  2  0  0  0  0
  2  3  1  0  0  0  0
  2 10  1  0  0  0  0
  3  4  1  0  0  0  0
  4  5  2  0  0  0  0
  4  9  1  0  0  0  0
  5  6  1  0  0  0  0
  6  7  2  0  0  0  0
  7  8  1  0  0  0  0
  8  9  2  0  0  0  0
 10 11  1  0  0  0  0
 11 12  1  0  0  0  0
 11 13  1  0  0  0  0
M  END
>  <ActivityOutcome_CPDBAS_Hamster>
inactive

$$$$



 15  6  0  0  0  0  0  0  0  0  3 V2000
    5.7806   -4.7517    0.0000 Pb  0  2  0  0  0  2  0  0  0  0  0  0
    5.1849    0.0000    0.0000 O   0  5  0  0  0  0  0  0  0  0  0  0
    4.5351   -1.1507    0.0000 C   0  0  0  0  0  0  0  0  0  0  0  0
    5.1849   -2.3014    0.0000 C   0  0  0  0  0  0  0  0  0  0  0  0
    3.1949   -1.1507    0.0000 O   0  0  0  0  0  0  0  0  0  0  0  0
    2.0036    0.0000    0.0000 O   0  5  0  0  0  0  0  0  0  0  0  0
    1.3267   -1.1507    0.0000 C   0  0  0  0  0  0  0  0  0  0  0  0
    2.0036   -2.3014    0.0000 C   0  0  0  0  0  0  0  0  0  0  0  0
    0.0000   -1.1507    0.0000 O   0  0  0  0  0  0  0  0  0  0  0  0
    7.6759   -4.9413    0.0000 O   0  5  0  0  0  0  0  0  0  0  0  0
    5.8754   -5.6452    0.0000 O   0  5  0  0  0  0  0  0  0  0  0  0
   11.4935   -1.8817    0.0000 Pb  0  2  0  0  0  2  0  0  0  0  0  0
   13.5377   -1.9900    0.0000 O   0  5  0  0  0  0  0  0  0  0  0  0
   11.7778   -2.7075    0.0000 O   0  5  0  0  0  0  0  0  0  0  0  0
    3.6281   -3.4792    0.0000 Pb  0  2  0  0  0  2  0  0  0  0  0  0
  2  3  1  0  0  0  0
  3  4  1  0  0  0  0
  3  5  2  0  0  0  0
  6  7  1  0  0  0  0
  7  8  1  0  0  0  0
  7  9  2  0  0  0  0
M  CHG  8   1   2   2  -1   6  -1  10  -1  11  -1  12   2  13  -1  14  -1
M  CHG  1  15   2
M  END
>  <ActivityOutcome_CPDBAS_Hamster>
inactive

$$$$



 20 20  0  0  0  0  0  0  0  0  1 V2000
    4.4090   -3.9937    0.0000 N   0  0  0  0  0  0  0  0  0  0  0  0
    5.5672   -4.6567    0.0000 C   0  0  0  0  0  0  0  0  0  0  0  0
    6.7174   -3.9937    0.0000 C   0  0  0  0  0  0  0  0  0  0  0  0
    7.8676   -4.6567    0.0000 C   0  0  0  0  0  0  0  0  0  0  0  0
    7.8676   -5.9906    0.0000 C   0  0  0  0  0  0  0  0  0  0  0  0
    6.7174   -6.6535    0.0000 C   0  0  0  0  0  0  0  0  0  0  0  0
    5.5672   -5.9906    0.0000 N   0  0  0  0  0  0  0  0  0  0  0  0
    3.2589   -4.6567    0.0000 C   0  0  0  0  0  0  0  0  0  0  0  0
    2.1087   -3.9937    0.0000 C   0  0  0  0  0  0  0  0  0  0  0  0
    0.8946   -4.5368    0.0000 C   0  0  0  0  0  0  0  0  0  0  0  0
    0.0000   -3.5464    0.0000 C   0  0  0  0  0  0  0  0  0  0  0  0
    0.6630   -2.3962    0.0000 C   0  0  0  0  0  0  0  0  0  0  0  0
    1.9649   -2.6678    0.0000 S   0  0  0  0  0  0  0  0  0  0  0  0
    4.4090   -2.6598    0.0000 C   0  0  0  0  0  0  0  0  0  0  0  0
    3.2589   -1.9969    0.0000 C   0  0  0  0  0  0  0  0  0  0  0  0
    3.2589   -0.6630    0.0000 N   0  0  0  0  0  0  0  0  0  0  0  0
    2.1087    0.0000    0.0000 C   0  0  0  0  0  0  0  0  0  0  0  0
    4.4090    0.0000    0.0000 C   0  0  0  0  0  0  0  0  0  0  0  0
    3.3307   -7.9874    0.0000 H   0  0  0  0  0  0  0  0  0  0  0  0
    4.6567   -7.9874    0.0000 Cl  0  0  0  0  0  0  0  0  0  0  0  0
  1  2  1  0  0  0  0
  1  8  1  0  0  0  0
  1 14  1  0  0  0  0
  2  3  1  0  0  0  0
  2  7  2  0  0  0  0
  3  4  2  0  0  0  0
  4  5  1  0  0  0  0
  5  6  2  0  0  0  0
  6  7  1  0  0  0  0
  8  9  1  0  0  0  0
  9 10  2  0  0  0  0
  9 13  1  0  0  0  0
 10 11  1  0  0  0  0
 11 12  2  0  0  0  0
 12 13  1  0  0  0  0
 14 15  1  0  0  0  0
 15 16  1  0  0  0  0
 16 17  1  0  0  0  0
 16 18  1  0  0  0  0
 19 20  1  0  0  0  0
M  END
>  <ActivityOutcome_CPDBAS_Hamster>
inactive

$$$$



 33 35  0  0  1  0  0  0  0  0  1 V2000
   14.9725   -5.3302    0.0000 N   0  0  0  0  0  0  0  0  0  0  0  0
   13.8197   -5.9890    0.0000 C   0  0  0  0  0  0  0  0  0  0  0  0
   12.6668   -5.3302    0.0000 C   0  0  0  0  0  0  0  0  0  0  0  0
   11.5139   -5.9890    0.0000 C   0  0  0  0  0  0  0  0  0  0  0  0
   11.5139   -7.3216    0.0000 N   0  0  0  0  0  0  0  0  0  0  0  0
   12.6668   -7.9804    0.0000 C   0  0  0  0  0  0  0  0  0  0  0  0
   13.8197   -7.3216    0.0000 N   0  0  0  0  0  0  0  0  0  0  0  0
   12.6668   -9.3129    0.0000 N   0  0  0  0  0  0  0  0  0  0  0  0
   10.3610   -5.3302    0.0000 N   0  0  0  0  0  0  0  0  0  0  0  0
   10.3610   -3.9977    0.0000 C   0  0  0  0  0  0  0  0  0  0  0  0
   11.5139   -3.3239    0.0000 C   0  0  0  0  0  0  0  0  0  0  0  0
   12.6668   -3.9977    0.0000 N   0  0  0  0  0  0  0  0  0  0  0  0
   11.5139   -1.9913    0.0000 C   0  0  0  0  0  0  0  0  0  0  0  0
   10.3610   -1.3326    0.0000 N   0  0  0  0  0  0  0  0  0  0  0  0
    9.2081   -1.9913    0.0000 C   0  0  0  0  0  0  0  0  0  0  0  0
    9.2081   -3.3239    0.0000 C   0  0  0  0  0  0  0  0  0  0  0  0
    8.0552   -3.9977    0.0000 C   0  0  0  0  0  0  0  0  0  0  0  0
    6.9173   -3.3239    0.0000 C   0  0  0  0  0  0  0  0  0  0  0  0
    6.9173   -1.9913    0.0000 C   0  0  0  0  0  0  0  0  0  0  0  0
    8.0552   -1.3326    0.0000 C   0  0  0  0  0  0  0  0  0  0  0  0
    5.7644   -3.9977    0.0000 C   0  0  0  0  0  0  0  0  0  0  0  0
    4.6115   -3.3239    0.0000 O   0  0  0  0  0  0  0  0  0  0  0  0
    5.7644   -5.3302    0.0000 N   0  0  0  0  0  0  0  0  0  0  0  0
    4.6115   -5.9890    0.0000 C   0  0  0  0  0  0  0  0  0  0  0  0
    3.4587   -5.3302    0.0000 C   0  0  0  0  0  0  0  0  0  0  0  0
    2.3058   -5.9890    0.0000 C   0  0  0  0  0  0  0  0  0  0  0  0
    1.1529   -5.3302    0.0000 C   0  0  0  0  0  0  0  0  0  0  0  0
    1.1529   -3.9977    0.0000 O   0  0  0  0  0  0  0  0  0  0  0  0
    0.0000   -5.9890    0.0000 O   0  0  0  0  0  0  0  0  0  0  0  0
    4.6115   -7.3216    0.0000 C   0  0  0  0  0  0  0  0  0  0  0  0
    3.4587   -7.9804    0.0000 O   0  0  0  0  0  0  0  0  0  0  0  0
    5.7644   -7.9804    0.0000 O   0  0  0  0  0  0  0  0  0  0  0  0
   10.3610    0.0000    0.0000 C   0  0  0  0  0  0  0  0  0  0  0  0
  1  2  1  0  0  0  0
  2  3  2  0  0  0  0
  2  7  1  0  0  0  0
  3  4  1  0  0  0  0
  3 12  1  0  0  0  0
  4  5  2  0  0  0  0
  4  9  1  0  0  0  0
  5  6  1  0  0  0  0
  6  7  2  0  0  0  0
  6  8  1  0  0  0  0
  9 10  2  0  0  0  0
 10 11  1  0  0  0  0
 11 12  2  0  0  0  0
 11 13  1  0  0  0  0
 13 14  1  0  0  0  0
 14 15  1  0  0  0  0
 14 33  1  0  0  0  0
 15 16  2  0  0  0  0
 15 20  1  0  0  0  0
 16 17  1  0  0  0  0
 17 18  2  0  0  0  0
 18 19  1  0  0  0  0
 18 21  1  0  0  0  0
 19 20  2  0  0  0  0
 21 22  2  0  0  0  0
 21 23  1  0  0  0  0
 24 23  1  6  0  0  0
 24 25  1  0  0  0  0
 24 30  1  0  0  0  0
 25 26  1  0  0  0  0
 26 27  1  0  0  0  0
 27 28  2  0  0  0  0
 27 29  1  0  0  0  0
 30 31  2  0  0  0  0
 30 32  1  0  0  0  0
M  END
>  <ActivityOutcome_CPDBAS_Hamster>
inactive

$$$$



  5  4  0  0  0  0  0  0  0  0  1 V2000
    2.3056    0.0000    0.0000 C   0  0  0  0  0  0  0  0  0  0  0  0
    2.3056   -1.3308    0.0000 N   0  0  0  0  0  0  0  0  0  0  0  0
    3.4567   -1.9945    0.0000 N   0  0  0  0  0  0  0  0  0  0  0  0
    1.1511   -1.9945    0.0000 C   0  0  0  0  0  0  0  0  0  0  0  0
    0.0000   -1.3308    0.0000 O   0  0  0  0  0  0  0  0  0  0  0  0
  1  2  1  0  0  0  0
  2  3  1  0  0  0  0
  2  4  1  0  0  0  0
  4  5  2  0  0  0  0
M  END
>  <ActivityOutcome_CPDBAS_Hamster>
active

$$$$



  7  6  0  0  0  0  0  0  0  0  1 V2000
    0.0000   -2.3052    0.0000 O   0  0  0  0  0  0  0  0  0  0  0  0
    1.3306   -2.3052    0.0000 C   0  0  0  0  0  0  0  0  0  0  0  0
    1.9941   -1.1508    0.0000 C   0  0  0  0  0  0  0  0  0  0  0  0
    3.3247   -1.1508    0.0000 C   0  0  0  0  0  0  0  0  0  0  0  0
    1.3306    0.0000    0.0000 C   0  0  0  0  0  0  0  0  0  0  0  0
    1.9941   -3.4560    0.0000 O   0  0  0  0  0  0  0  0  0  0  0  0
    3.3247   -3.4560    0.0000 C   0  0  0  0  0  0  0  0  0  0  0  0
  1  2  2  0  0  0  0
  2  3  1  0  0  0  0
  2  6  1  0  0  0  0
  3  4  2  0  0  0  0
  3  5  1  0  0  0  0
  6  7  1  0  0  0  0
M  END
>  <ActivityOutcome_CPDBAS_Hamster>
inactive

$$$$



  3  2  0  0  0  0  0  0  0  0  1 V2000
    2.3030   -0.6656    0.0000 C   0  0  0  0  0  0  0  0  0  0  0  0
    1.1515    0.0000    0.0000 N   0  0  0  0  0  0  0  0  0  0  0  0
    0.0000   -0.6656    0.0000 N   0  0  0  0  0  0  0  0  0  0  0  0
  1  2  1  0  0  0  0
  2  3  1  0  0  0  0
M  END
>  <ActivityOutcome_CPDBAS_Hamster>
active

$$$$



 15 15  0  0  0  0  0  0  0  0  1 V2000
    3.4524   -3.9915    0.0000 O   0  0  0  0  0  0  0  0  0  0  0  0
    3.4524   -2.6644    0.0000 C   0  0  0  0  0  0  0  0  0  0  0  0
    2.3016   -2.0009    0.0000 C   0  0  0  0  0  0  0  0  0  0  0  0
    1.1508   -2.6644    0.0000 C   0  0  0  0  0  0  0  0  0  0  0  0
    0.0000   -2.0009    0.0000 C   0  0  0  0  0  0  0  0  0  0  0  0
    0.0000   -0.6635    0.0000 C   0  0  0  0  0  0  0  0  0  0  0  0
    1.1508    0.0000    0.0000 N   0  0  0  0  0  0  0  0  0  0  0  0
    2.3016   -0.6635    0.0000 C   0  0  0  0  0  0  0  0  0  0  0  0
    4.6032   -2.0009    0.0000 C   0  0  0  0  0  0  0  0  0  0  0  0
    5.7643   -2.6644    0.0000 C   0  0  0  0  0  0  0  0  0  0  0  0
    6.9151   -2.0009    0.0000 C   0  0  0  0  0  0  0  0  0  0  0  0
    8.0659   -2.6644    0.0000 N   0  0  0  0  0  0  0  0  0  0  0  0
    9.2167   -2.0009    0.0000 N   0  0  0  0  0  0  0  0  0  0  0  0
   10.3675   -2.6644    0.0000 O   0  0  0  0  0  0  0  0  0  0  0  0
    8.0659   -3.9915    0.0000 C   0  0  0  0  0  0  0  0  0  0  0  0
  1  2  2  0  0  0  0
  2  3  1  0  0  0  0
  2  9  1  0  0  0  0
  3  4  2  0  0  0  0
  3  8  1  0  0  0  0
  4  5  1  0  0  0  0
  5  6  2  0  0  0  0
  6  7  1  0  0  0  0
  7  8  2  0  0  0  0
  9 10  1  0  0  0  0
 10 11  1  0  0  0  0
 11 12  1  0  0  0  0
 12 13  1  0  0  0  0
 12 15  1  0  0  0  0
 13 14  2  0  0  0  0
M  END
>  <ActivityOutcome_CPDBAS_Hamster>
inactive

$$$$



  9  9  0  0  0  0  0  0  0  0  1 V2000
    0.0000   -2.3037    0.0000 C   0  0  0  0  0  0  0  0  0  0  0  0
    1.3315   -2.3037    0.0000 C   0  0  0  0  0  0  0  0  0  0  0  0
    1.9950   -1.1518    0.0000 C   0  0  0  0  0  0  0  0  0  0  0  0
    3.3265   -1.1518    0.0000 C   0  0  0  0  0  0  0  0  0  0  0  0
    3.9899    0.0000    0.0000 O   0  0  0  0  0  0  0  0  0  0  0  0
    3.9899   -2.3037    0.0000 N   0  0  0  0  0  0  0  0  0  0  0  0
    3.3265   -3.4555    0.0000 C   0  0  0  0  0  0  0  0  0  0  0  0
    3.9899   -4.6073    0.0000 S   0  0  0  0  0  0  0  0  0  0  0  0
    1.9950   -3.4555    0.0000 N   0  0  0  0  0  0  0  0  0  0  0  0
  1  2  1  0  0  0  0
  2  3  2  0  0  0  0
  2  9  1  0  0  0  0
  3  4  1  0  0  0  0
  4  5  2  0  0  0  0
  4  6  1  0  0  0  0
  6  7  1  0  0  0  0
  7  8  2  0  0  0  0
  7  9  1  0  0  0  0
M  END
>  <ActivityOutcome_CPDBAS_Hamster>
active

$$$$



 23 25  0  0  0  0  0  0  0  0  1 V2000
    1.6416   -5.7565    0.0000 C   0  0  0  0  0  0  0  0  0  0  0  0
    2.2982   -4.6074    0.0000 C   0  0  0  0  0  0  0  0  0  0  0  0
    1.1491   -3.9398    0.0000 C   0  0  0  0  0  0  0  0  0  0  0  0
    0.0000   -4.6074    0.0000 O   0  0  0  0  0  0  0  0  0  0  0  0
    1.1491   -2.6156    0.0000 O   0  0  0  0  0  0  0  0  0  0  0  0
    2.9658   -3.4583    0.0000 O   0  0  0  0  0  0  0  0  0  0  0  0
    4.3010   -3.4583    0.0000 C   0  0  0  0  0  0  0  0  0  0  0  0
    4.9576   -2.2982    0.0000 C   0  0  0  0  0  0  0  0  0  0  0  0
    6.2928   -2.2982    0.0000 C   0  0  0  0  0  0  0  0  0  0  0  0
    6.9604   -3.4583    0.0000 C   0  0  0  0  0  0  0  0  0  0  0  0
    6.2928   -4.6074    0.0000 C   0  0  0  0  0  0  0  0  0  0  0  0
    4.9576   -4.6074    0.0000 C   0  0  0  0  0  0  0  0  0  0  0  0
    8.2846   -3.4583    0.0000 C   0  0  0  0  0  0  0  0  0  0  0  0
    8.9522   -4.6074    0.0000 C   0  0  0  0  0  0  0  0  0  0  0  0
   10.2764   -4.6074    0.0000 C   0  0  0  0  0  0  0  0  0  0  0  0
   10.9440   -3.4583    0.0000 C   0  0  0  0  0  0  0  0  0  0  0  0
   10.2764   -2.2982    0.0000 C   0  0  0  0  0  0  0  0  0  0  0  0
    8.9522   -2.2982    0.0000 C   0  0  0  0  0  0  0  0  0  0  0  0
    8.2846   -1.1491    0.0000 C   0  0  0  0  0  0  0  0  0  0  0  0
    8.9522    0.0000    0.0000 C   0  0  0  0  0  0  0  0  0  0  0  0
   10.2764    0.0000    0.0000 C   0  0  0  0  0  0  0  0  0  0  0  0
   10.9440   -1.1491    0.0000 C   0  0  0  0  0  0  0  0  0  0  0  0
    3.4583   -5.2750    0.0000 C   0  0  0  0  0  0  0  0  0  0  0  0
  1  2  1  0  0  0  0
  2  3  1  0  0  0  0
  2  6  1  0  0  0  0
  2 23  1  0  0  0  0
  3  4  1  0  0  0  0
  3  5  2  0  0  0  0
  6  7  1  0  0  0  0
  7  8  2  0  0  0  0
  7 12  1  0  0  0  0
  8  9  1  0  0  0  0
  9 10  2  0  0  0  0
 10 11  1  0  0  0  0
 10 13  1  0  0  0  0
 11 12  2  0  0  0  0
 13 14  1  0  0  0  0
 13 18  1  0  0  0  0
 14 15  1  0  0  0  0
 15 16  1  0  0  0  0
 16 17  1  0  0  0  0
 17 18  2  0  0  0  0
 17 22  1  0  0  0  0
 18 19  1  0  0  0  0
 19 20  2  0  0  0  0
 20 21  1  0  0  0  0
 21 22  2  0  0  0  0
M  END
>  <ActivityOutcome_CPDBAS_Hamster>
inactive

$$$$



  4  2  0  0  0  0  0  0  0  0  2 V2000
    2.3030   -0.6656    0.0000 O   0  0  0  0  0  0  0  0  0  0  0  0
    1.1515    0.0000    0.0000 N   0  0  0  0  0  0  0  0  0  0  0  0
    0.0000   -0.6656    0.0000 O   0  5  0  0  0  0  0  0  0  0  0  0
    1.1975   -1.9944    0.0000 Na  0  3  0  0  0  0  0  0  0  0  0  0
  1  2  2  0  0  0  0
  2  3  1  0  0  0  0
M  CHG  2   3  -1   4   1
M  END
>  <ActivityOutcome_CPDBAS_Hamster>
inactive

$$$$



 17 18  0  0  0  0  0  0  0  0  2 V2000
    1.2652   -1.2985    0.0000 N   0  3  0  0  0  0  0  0  0  0  0  0
    0.0000   -1.7091    0.0000 O   0  5  0  0  0  0  0  0  0  0  0  0
    1.5426    0.0000    0.0000 O   0  0  0  0  0  0  0  0  0  0  0  0
    2.2529   -2.1863    0.0000 C   0  0  0  0  0  0  0  0  0  0  0  0
    3.5514   -1.9089    0.0000 O   0  0  0  0  0  0  0  0  0  0  0  0
    4.2173   -3.0631    0.0000 C   0  0  0  0  0  0  0  0  0  0  0  0
    3.3294   -4.0508    0.0000 C   0  0  0  0  0  0  0  0  0  0  0  0
    2.1086   -3.5070    0.0000 C   0  0  0  0  0  0  0  0  0  0  0  0
    5.5380   -3.1963    0.0000 C   0  0  0  0  0  0  0  0  0  0  0  0
    6.4258   -2.2085    0.0000 N   0  0  0  0  0  0  0  0  0  0  0  0
    7.6466   -2.7523    0.0000 C   0  0  0  0  0  0  0  0  0  0  0  0
    7.5023   -4.0730    0.0000 S   0  0  0  0  0  0  0  0  0  0  0  0
    6.2039   -4.3505    0.0000 C   0  0  0  0  0  0  0  0  0  0  0  0
    8.8008   -2.0865    0.0000 N   0  0  0  0  0  0  0  0  0  0  0  0
    9.9439   -2.7523    0.0000 C   0  0  0  0  0  0  0  0  0  0  0  0
    9.9439   -4.0841    0.0000 O   0  0  0  0  0  0  0  0  0  0  0  0
   11.0981   -2.0865    0.0000 C   0  0  0  0  0  0  0  0  0  0  0  0
  1  2  1  0  0  0  0
  1  3  2  0  0  0  0
  1  4  1  0  0  0  0
  4  5  1  0  0  0  0
  4  8  2  0  0  0  0
  5  6  1  0  0  0  0
  6  7  2  0  0  0  0
  6  9  1  0  0  0  0
  7  8  1  0  0  0  0
  9 10  1  0  0  0  0
  9 13  2  0  0  0  0
 10 11  2  0  0  0  0
 11 12  1  0  0  0  0
 11 14  1  0  0  0  0
 12 13  1  0  0  0  0
 14 15  1  0  0  0  0
 15 16  2  0  0  0  0
 15 17  1  0  0  0  0
M  CHG  2   1   1   2  -1
M  END
>  <ActivityOutcome_CPDBAS_Hamster>
active

$$$$



 16 17  0  0  0  0  0  0  0  0  2 V2000
   10.9589   -1.9945    0.0000 O   0  5  0  0  0  0  0  0  0  0  0  0
    9.8082   -1.3260    0.0000 N   0  3  0  0  0  0  0  0  0  0  0  0
    9.8082    0.0000    0.0000 O   0  0  0  0  0  0  0  0  0  0  0  0
    8.6575   -1.9945    0.0000 C   0  0  0  0  0  0  0  0  0  0  0  0
    8.5151   -3.3205    0.0000 C   0  0  0  0  0  0  0  0  0  0  0  0
    7.2110   -3.5945    0.0000 C   0  0  0  0  0  0  0  0  0  0  0  0
    6.5534   -2.4438    0.0000 C   0  0  0  0  0  0  0  0  0  0  0  0
    7.4411   -1.4575    0.0000 O   0  0  0  0  0  0  0  0  0  0  0  0
    5.2274   -2.3014    0.0000 C   0  0  0  0  0  0  0  0  0  0  0  0
    4.3397   -3.2877    0.0000 C   0  0  0  0  0  0  0  0  0  0  0  0
    3.1233   -2.7507    0.0000 S   0  0  0  0  0  0  0  0  0  0  0  0
    3.2658   -1.4247    0.0000 C   0  0  0  0  0  0  0  0  0  0  0  0
    4.5589   -1.1507    0.0000 N   0  0  0  0  0  0  0  0  0  0  0  0
    2.2795   -0.5370    0.0000 N   0  0  0  0  0  0  0  0  0  0  0  0
    1.0301   -1.0192    0.0000 C   0  0  0  0  0  0  0  0  0  0  0  0
    0.0000   -0.1753    0.0000 O   0  0  0  0  0  0  0  0  0  0  0  0
  1  2  1  0  0  0  0
  2  3  2  0  0  0  0
  2  4  1  0  0  0  0
  4  5  2  0  0  0  0
  4  8  1  0  0  0  0
  5  6  1  0  0  0  0
  6  7  2  0  0  0  0
  7  8  1  0  0  0  0
  7  9  1  0  0  0  0
  9 10  2  0  0  0  0
  9 13  1  0  0  0  0
 10 11  1  0  0  0  0
 11 12  1  0  0  0  0
 12 13  2  0  0  0  0
 12 14  1  0  0  0  0
 14 15  1  0  0  0  0
 15 16  2  0  0  0  0
M  CHG  2   1  -1   2   1
M  END
>  <ActivityOutcome_CPDBAS_Hamster>
active

$$$$



 15 17  0  0  0  0  0  0  0  0  2 V2000
    4.2842    0.0000    0.0000 O   0  0  0  0  0  0  0  0  0  0  0  0
    4.2842   -1.3283    0.0000 N   0  3  0  0  0  0  0  0  0  0  0  0
    3.1294   -1.9925    0.0000 C   0  0  0  0  0  0  0  0  0  0  0  0
    1.9805   -1.3283    0.0000 C   0  0  0  0  0  0  0  0  0  0  0  0
    0.8257   -1.9925    0.0000 C   0  0  0  0  0  0  0  0  0  0  0  0
    0.8257   -3.3268    0.0000 C   0  0  0  0  0  0  0  0  0  0  0  0
    1.9805   -3.9910    0.0000 C   0  0  0  0  0  0  0  0  0  0  0  0
    3.1294   -3.3268    0.0000 C   0  0  0  0  0  0  0  0  0  0  0  0
    4.2842   -3.9910    0.0000 C   0  0  0  0  0  0  0  0  0  0  0  0
    4.2842   -5.3193    0.0000 C   0  0  0  0  0  0  0  0  0  0  0  0
    3.1294   -5.9835    0.0000 C   0  0  0  0  0  0  0  0  0  0  0  0
    1.9805   -5.3193    0.0000 C   0  0  0  0  0  0  0  0  0  0  0  0
    0.6642   -5.5168    0.0000 C   0  0  0  0  0  0  0  0  0  0  0  0
    0.0000   -4.3620    0.0000 C   0  0  0  0  0  0  0  0  0  0  0  0
    5.4330   -1.9925    0.0000 O   0  5  0  0  0  0  0  0  0  0  0  0
  1  2  2  0  0  0  0
  2  3  1  0  0  0  0
  2 15  1  0  0  0  0
  3  4  2  0  0  0  0
  3  8  1  0  0  0  0
  4  5  1  0  0  0  0
  5  6  2  0  0  0  0
  6  7  1  0  0  0  0
  6 14  1  0  0  0  0
  7  8  2  0  0  0  0
  7 12  1  0  0  0  0
  8  9  1  0  0  0  0
  9 10  2  0  0  0  0
 10 11  1  0  0  0  0
 11 12  2  0  0  0  0
 12 13  1  0  0  0  0
 13 14  1  0  0  0  0
M  CHG  2   2   1  15  -1
M  END
>  <ActivityOutcome_CPDBAS_Hamster>
inactive

$$$$



 12 11  0  0  0  0  0  0  0  0  1 V2000
    3.3277   -1.1482    0.0000 N   0  0  0  0  0  0  0  0  0  0  0  0
    3.9859   -2.3038    0.0000 C   0  0  0  0  0  0  0  0  0  0  0  0
    5.3169   -2.3038    0.0000 C   0  0  0  0  0  0  0  0  0  0  0  0
    5.9825   -1.1482    0.0000 C   0  0  0  0  0  0  0  0  0  0  0  0
    7.3135   -1.1482    0.0000 O   0  0  0  0  0  0  0  0  0  0  0  0
    5.9825   -3.4520    0.0000 O   0  0  0  0  0  0  0  0  0  0  0  0
    1.9966   -1.1482    0.0000 C   0  0  0  0  0  0  0  0  0  0  0  0
    1.3311   -2.3038    0.0000 C   0  0  0  0  0  0  0  0  0  0  0  0
    1.9966   -3.4520    0.0000 O   0  0  0  0  0  0  0  0  0  0  0  0
    0.0000   -2.3038    0.0000 C   0  0  0  0  0  0  0  0  0  0  0  0
    3.9859    0.0000    0.0000 N   0  0  0  0  0  0  0  0  0  0  0  0
    5.3169    0.0000    0.0000 O   0  0  0  0  0  0  0  0  0  0  0  0
  1  2  1  0  0  0  0
  1  7  1  0  0  0  0
  1 11  1  0  0  0  0
  2  3  1  0  0  0  0
  3  4  1  0  0  0  0
  3  6  1  0  0  0  0
  4  5  1  0  0  0  0
  7  8  1  0  0  0  0
  8  9  1  0  0  0  0
  8 10  1  0  0  0  0
 11 12  2  0  0  0  0
M  END
>  <ActivityOutcome_CPDBAS_Hamster>
active

$$$$



 12 11  0  0  0  0  0  0  0  0  1 V2000
    3.3277   -1.1482    0.0000 N   0  0  0  0  0  0  0  0  0  0  0  0
    3.9859   -2.3038    0.0000 C   0  0  0  0  0  0  0  0  0  0  0  0
    5.3169   -2.3038    0.0000 C   0  0  0  0  0  0  0  0  0  0  0  0
    5.9825   -1.1482    0.0000 C   0  0  0  0  0  0  0  0  0  0  0  0
    7.3135   -1.1482    0.0000 O   0  0  0  0  0  0  0  0  0  0  0  0
    5.9825   -3.4520    0.0000 O   0  0  0  0  0  0  0  0  0  0  0  0
    1.9966   -1.1482    0.0000 C   0  0  0  0  0  0  0  0  0  0  0  0
    1.3311   -2.3038    0.0000 C   0  0  0  0  0  0  0  0  0  0  0  0
    1.9966   -3.4520    0.0000 C   0  0  0  0  0  0  0  0  0  0  0  0
    0.0000   -2.3038    0.0000 O   0  0  0  0  0  0  0  0  0  0  0  0
    3.9859    0.0000    0.0000 N   0  0  0  0  0  0  0  0  0  0  0  0
    5.3169    0.0000    0.0000 O   0  0  0  0  0  0  0  0  0  0  0  0
  1  2  1  0  0  0  0
  1  7  1  0  0  0  0
  1 11  1  0  0  0  0
  2  3  1  0  0  0  0
  3  4  1  0  0  0  0
  3  6  1  0  0  0  0
  4  5  1  0  0  0  0
  7  8  1  0  0  0  0
  8  9  1  0  0  0  0
  8 10  2  0  0  0  0
 11 12  2  0  0  0  0
M  END
>  <ActivityOutcome_CPDBAS_Hamster>
active

$$$$



 11 10  0  0  0  0  0  0  0  0  1 V2000
    3.9901   -2.3031    0.0000 N   0  0  0  0  0  0  0  0  0  0  0  0
    3.3261   -1.1486    0.0000 C   0  0  0  0  0  0  0  0  0  0  0  0
    1.9921   -1.1486    0.0000 C   0  0  0  0  0  0  0  0  0  0  0  0
    1.3280   -2.3031    0.0000 C   0  0  0  0  0  0  0  0  0  0  0  0
    0.0000   -2.3031    0.0000 O   0  0  0  0  0  0  0  0  0  0  0  0
    1.3280    0.0000    0.0000 O   0  0  0  0  0  0  0  0  0  0  0  0
    5.3182   -2.3031    0.0000 C   0  0  0  0  0  0  0  0  0  0  0  0
    5.9822   -1.1486    0.0000 C   0  0  0  0  0  0  0  0  0  0  0  0
    5.3182    0.0000    0.0000 O   0  0  0  0  0  0  0  0  0  0  0  0
    3.3261   -3.4517    0.0000 N   0  0  0  0  0  0  0  0  0  0  0  0
    1.9921   -3.4517    0.0000 O   0  0  0  0  0  0  0  0  0  0  0  0
  1  2  1  0  0  0  0
  1  7  1  0  0  0  0
  1 10  1  0  0  0  0
  2  3  1  0  0  0  0
  3  4  1  0  0  0  0
  3  6  1  0  0  0  0
  4  5  1  0  0  0  0
  7  8  1  0  0  0  0
  8  9  1  0  0  0  0
 10 11  2  0  0  0  0
M  END
>  <ActivityOutcome_CPDBAS_Hamster>
inactive

$$$$



 10  9  0  0  0  0  0  0  0  0  1 V2000
    1.9973   -3.4592    0.0000 N   0  0  0  0  0  0  0  0  0  0  0  0
    2.6584   -2.3046    0.0000 C   0  0  0  0  0  0  0  0  0  0  0  0
    1.9973   -1.1546    0.0000 C   0  0  0  0  0  0  0  0  0  0  0  0
    0.6658   -1.1546    0.0000 C   0  0  0  0  0  0  0  0  0  0  0  0
    2.6584    0.0000    0.0000 O   0  0  0  0  0  0  0  0  0  0  0  0
    2.6584   -4.6091    0.0000 C   0  0  0  0  0  0  0  0  0  0  0  0
    3.9899   -4.6091    0.0000 C   0  0  0  0  0  0  0  0  0  0  0  0
    4.6557   -3.4592    0.0000 O   0  0  0  0  0  0  0  0  0  0  0  0
    0.6658   -3.4592    0.0000 N   0  0  0  0  0  0  0  0  0  0  0  0
    0.0000   -2.3046    0.0000 O   0  0  0  0  0  0  0  0  0  0  0  0
  1  2  1  0  0  0  0
  1  6  1  0  0  0  0
  1  9  1  0  0  0  0
  2  3  1  0  0  0  0
  3  4  1  0  0  0  0
  3  5  2  0  0  0  0
  6  7  1  0  0  0  0
  7  8  1  0  0  0  0
  9 10  2  0  0  0  0
M  END
>  <ActivityOutcome_CPDBAS_Hamster>
active

$$$$



 11 11  0  0  0  0  0  0  0  0  1 V2000
    3.3269   -3.4585    0.0000 C   0  0  0  0  0  0  0  0  0  0  0  0
    1.9925   -3.4585    0.0000 C   0  0  0  0  0  0  0  0  0  0  0  0
    1.3283   -2.3037    0.0000 N   0  0  0  0  0  0  0  0  0  0  0  0
    1.9925   -1.1548    0.0000 C   0  0  0  0  0  0  0  0  0  0  0  0
    3.3269   -1.1548    0.0000 C   0  0  0  0  0  0  0  0  0  0  0  0
    3.9910   -2.3037    0.0000 N   0  0  0  0  0  0  0  0  0  0  0  0
    5.3194   -2.3037    0.0000 N   0  0  0  0  0  0  0  0  0  0  0  0
    5.9835   -1.1548    0.0000 O   0  0  0  0  0  0  0  0  0  0  0  0
    1.3283    0.0000    0.0000 C   0  0  0  0  0  0  0  0  0  0  0  0
    0.0000   -2.3037    0.0000 C   0  0  0  0  0  0  0  0  0  0  0  0
    1.3283   -4.6073    0.0000 C   0  0  0  0  0  0  0  0  0  0  0  0
  1  2  1  0  0  0  0
  1  6  1  0  0  0  0
  2  3  1  0  0  0  0
  2 11  1  0  0  0  0
  3  4  1  0  0  0  0
  3 10  1  0  0  0  0
  4  5  1  0  0  0  0
  4  9  1  0  0  0  0
  5  6  1  0  0  0  0
  6  7  1  0  0  0  0
  7  8  2  0  0  0  0
M  END
>  <ActivityOutcome_CPDBAS_Hamster>
active

$$$$



 10  9  0  0  0  0  0  0  0  0  1 V2000
    1.9973   -3.4592    0.0000 N   0  0  0  0  0  0  0  0  0  0  0  0
    2.6584   -2.3046    0.0000 C   0  0  0  0  0  0  0  0  0  0  0  0
    1.9973   -1.1546    0.0000 C   0  0  0  0  0  0  0  0  0  0  0  0
    0.6658   -1.1546    0.0000 C   0  0  0  0  0  0  0  0  0  0  0  0
    2.6584    0.0000    0.0000 O   0  0  0  0  0  0  0  0  0  0  0  0
    2.6584   -4.6091    0.0000 C   0  0  0  0  0  0  0  0  0  0  0  0
    3.9899   -4.6091    0.0000 C   0  0  0  0  0  0  0  0  0  0  0  0
    4.6557   -3.4592    0.0000 C   0  0  0  0  0  0  0  0  0  0  0  0
    0.6658   -3.4592    0.0000 N   0  0  0  0  0  0  0  0  0  0  0  0
    0.0000   -2.3046    0.0000 O   0  0  0  0  0  0  0  0  0  0  0  0
  1  2  1  0  0  0  0
  1  6  1  0  0  0  0
  1  9  1  0  0  0  0
  2  3  1  0  0  0  0
  3  4  1  0  0  0  0
  3  5  2  0  0  0  0
  6  7  1  0  0  0  0
  7  8  2  0  0  0  0
  9 10  2  0  0  0  0
M  END
>  <ActivityOutcome_CPDBAS_Hamster>
active

$$$$



  9  8  0  0  0  0  0  0  0  0  1 V2000
    2.3046   -1.9992    0.0000 N   0  0  0  0  0  0  0  0  0  0  0  0
    3.4569   -2.6618    0.0000 C   0  0  0  0  0  0  0  0  0  0  0  0
    4.6092   -1.9992    0.0000 C   0  0  0  0  0  0  0  0  0  0  0  0
    4.6092   -0.6683    0.0000 C   0  0  0  0  0  0  0  0  0  0  0  0
    3.4569    0.0000    0.0000 O   0  0  0  0  0  0  0  0  0  0  0  0
    5.7615   -2.6618    0.0000 O   0  0  0  0  0  0  0  0  0  0  0  0
    2.3046   -0.6683    0.0000 C   0  0  0  0  0  0  0  0  0  0  0  0
    1.1523   -2.6618    0.0000 N   0  0  0  0  0  0  0  0  0  0  0  0
    0.0000   -1.9992    0.0000 O   0  0  0  0  0  0  0  0  0  0  0  0
  1  2  1  0  0  0  0
  1  7  1  0  0  0  0
  1  8  1  0  0  0  0
  2  3  1  0  0  0  0
  3  4  1  0  0  0  0
  3  6  1  0  0  0  0
  4  5  1  0  0  0  0
  8  9  2  0  0  0  0
M  END
>  <ActivityOutcome_CPDBAS_Hamster>
active

$$$$



  8  8  0  0  0  0  0  0  0  0  1 V2000
    0.0000    0.0000    0.0000 O   0  0  0  0  0  0  0  0  0  0  0  0
    0.6654   -1.1540    0.0000 N   0  0  0  0  0  0  0  0  0  0  0  0
    1.9962   -1.1540    0.0000 N   0  0  0  0  0  0  0  0  0  0  0  0
    2.6569    0.0000    0.0000 C   0  0  0  0  0  0  0  0  0  0  0  0
    3.9877    0.0000    0.0000 C   0  0  0  0  0  0  0  0  0  0  0  0
    4.6531   -1.1540    0.0000 O   0  0  0  0  0  0  0  0  0  0  0  0
    3.9877   -2.3033    0.0000 C   0  0  0  0  0  0  0  0  0  0  0  0
    2.6569   -2.3033    0.0000 C   0  0  0  0  0  0  0  0  0  0  0  0
  1  2  2  0  0  0  0
  2  3  1  0  0  0  0
  3  4  1  0  0  0  0
  3  8  1  0  0  0  0
  4  5  1  0  0  0  0
  5  6  1  0  0  0  0
  6  7  1  0  0  0  0
  7  8  1  0  0  0  0
M  END
>  <ActivityOutcome_CPDBAS_Hamster>
active

$$$$



 13 14  0  0  0  0  0  0  0  0  1 V2000
    2.2670    0.0000    0.0000 N   0  0  0  0  0  0  0  0  0  0  0  0
    3.5961    0.0000    0.0000 C   0  0  0  0  0  0  0  0  0  0  0  0
    4.2606   -1.1490    0.0000 C   0  0  0  0  0  0  0  0  0  0  0  0
    3.5961   -2.3042    0.0000 C   0  0  0  0  0  0  0  0  0  0  0  0
    2.2670   -2.3042    0.0000 C   0  0  0  0  0  0  0  0  0  0  0  0
    1.5962   -1.1490    0.0000 C   0  0  0  0  0  0  0  0  0  0  0  0
    1.5962   -3.4532    0.0000 C   0  0  0  0  0  0  0  0  0  0  0  0
    2.1427   -4.6705    0.0000 N   0  0  0  0  0  0  0  0  0  0  0  0
    3.4408   -4.9438    0.0000 N   0  0  0  0  0  0  0  0  0  0  0  0
    3.8507   -6.2108    0.0000 O   0  0  0  0  0  0  0  0  0  0  0  0
    1.1490   -5.5587    0.0000 C   0  0  0  0  0  0  0  0  0  0  0  0
    0.0000   -4.8941    0.0000 C   0  0  0  0  0  0  0  0  0  0  0  0
    0.2795   -3.5961    0.0000 C   0  0  0  0  0  0  0  0  0  0  0  0
  1  2  1  0  0  0  0
  1  6  2  0  0  0  0
  2  3  2  0  0  0  0
  3  4  1  0  0  0  0
  4  5  2  0  0  0  0
  5  6  1  0  0  0  0
  5  7  1  0  0  0  0
  7  8  1  0  0  0  0
  7 13  1  0  0  0  0
  8  9  1  0  0  0  0
  8 11  1  0  0  0  0
  9 10  2  0  0  0  0
 11 12  1  0  0  0  0
 12 13  1  0  0  0  0
M  END
>  <ActivityOutcome_CPDBAS_Hamster>
active

$$$$



 14 15  0  0  0  0  0  0  0  0  2 V2000
    5.5085   -1.1540    0.0000 C   0  0  0  0  0  0  0  0  0  0  0  0
    6.1727   -2.3014    0.0000 C   0  0  0  0  0  0  0  0  0  0  0  0
    5.5085   -3.4554    0.0000 C   0  0  0  0  0  0  0  0  0  0  0  0
    4.1800   -3.4554    0.0000 C   0  0  0  0  0  0  0  0  0  0  0  0
    3.5091   -2.3014    0.0000 C   0  0  0  0  0  0  0  0  0  0  0  0
    4.1800   -1.1540    0.0000 N   0  3  0  0  0  0  0  0  0  0  0  0
    3.5091    0.0000    0.0000 O   0  5  0  0  0  0  0  0  0  0  0  0
    3.5091   -4.6027    0.0000 C   0  0  0  0  0  0  0  0  0  0  0  0
    4.0525   -5.8171    0.0000 C   0  0  0  0  0  0  0  0  0  0  0  0
    3.0662   -6.7095    0.0000 C   0  0  0  0  0  0  0  0  0  0  0  0
    1.9122   -6.0453    0.0000 C   0  0  0  0  0  0  0  0  0  0  0  0
    2.1873   -4.7436    0.0000 N   0  0  0  0  0  0  0  0  0  0  0  0
    1.3016   -3.7573    0.0000 N   0  0  0  0  0  0  0  0  0  0  0  0
    0.0000   -4.0324    0.0000 O   0  0  0  0  0  0  0  0  0  0  0  0
  1  2  2  0  0  0  0
  1  6  1  0  0  0  0
  2  3  1  0  0  0  0
  3  4  2  0  0  0  0
  4  5  1  0  0  0  0
  4  8  1  0  0  0  0
  5  6  2  0  0  0  0
  6  7  1  0  0  0  0
  8  9  1  0  0  0  0
  8 12  1  0  0  0  0
  9 10  1  0  0  0  0
 10 11  1  0  0  0  0
 11 12  1  0  0  0  0
 12 13  1  0  0  0  0
 13 14  2  0  0  0  0
M  CHG  2   6   1   7  -1
M  END
>  <ActivityOutcome_CPDBAS_Hamster>
inactive

$$$$



  8  8  0  0  0  0  0  0  0  0  1 V2000
    0.0000    0.0000    0.0000 O   0  0  0  0  0  0  0  0  0  0  0  0
    0.6654   -1.1540    0.0000 N   0  0  0  0  0  0  0  0  0  0  0  0
    1.9962   -1.1540    0.0000 N   0  0  0  0  0  0  0  0  0  0  0  0
    2.6569    0.0000    0.0000 C   0  0  0  0  0  0  0  0  0  0  0  0
    3.9877    0.0000    0.0000 C   0  0  0  0  0  0  0  0  0  0  0  0
    4.6531   -1.1540    0.0000 C   0  0  0  0  0  0  0  0  0  0  0  0
    3.9877   -2.3033    0.0000 C   0  0  0  0  0  0  0  0  0  0  0  0
    2.6569   -2.3033    0.0000 C   0  0  0  0  0  0  0  0  0  0  0  0
  1  2  2  0  0  0  0
  2  3  1  0  0  0  0
  3  4  1  0  0  0  0
  3  8  1  0  0  0  0
  4  5  1  0  0  0  0
  5  6  1  0  0  0  0
  6  7  1  0  0  0  0
  7  8  1  0  0  0  0
M  END
>  <ActivityOutcome_CPDBAS_Hamster>
active

$$$$



  7  7  0  0  0  0  0  0  0  0  1 V2000
    0.0000   -1.5998    0.0000 O   0  0  0  0  0  0  0  0  0  0  0  0
    1.1503   -2.2653    0.0000 N   0  0  0  0  0  0  0  0  0  0  0  0
    2.3050   -1.5998    0.0000 N   0  0  0  0  0  0  0  0  0  0  0  0
    2.4416   -0.2777    0.0000 C   0  0  0  0  0  0  0  0  0  0  0  0
    3.7417    0.0000    0.0000 C   0  0  0  0  0  0  0  0  0  0  0  0
    4.4072   -1.1547    0.0000 C   0  0  0  0  0  0  0  0  0  0  0  0
    3.5169   -2.1419    0.0000 C   0  0  0  0  0  0  0  0  0  0  0  0
  1  2  2  0  0  0  0
  2  3  1  0  0  0  0
  3  4  1  0  0  0  0
  3  7  1  0  0  0  0
  4  5  1  0  0  0  0
  5  6  1  0  0  0  0
  6  7  1  0  0  0  0
M  END
>  <ActivityOutcome_CPDBAS_Hamster>
active

$$$$



 13 12  0  0  0  0  0  0  0  0  1 V2000
    3.3259   -3.4535    0.0000 O   0  0  0  0  0  0  0  0  0  0  0  0
    3.9879   -2.2970    0.0000 C   0  0  0  0  0  0  0  0  0  0  0  0
    3.3259   -1.1485    0.0000 N   0  0  0  0  0  0  0  0  0  0  0  0
    1.9939   -1.1485    0.0000 C   0  0  0  0  0  0  0  0  0  0  0  0
    1.3320   -2.2970    0.0000 C   0  0  0  0  0  0  0  0  0  0  0  0
    1.9939   -3.4535    0.0000 C   0  0  0  0  0  0  0  0  0  0  0  0
    0.0000   -2.2970    0.0000 O   0  0  0  0  0  0  0  0  0  0  0  0
    3.9879    0.0000    0.0000 N   0  0  0  0  0  0  0  0  0  0  0  0
    5.3199    0.0000    0.0000 O   0  0  0  0  0  0  0  0  0  0  0  0
    5.3199   -2.2970    0.0000 N   0  0  0  0  0  0  0  0  0  0  0  0
    5.9818   -3.4535    0.0000 C   0  0  0  0  0  0  0  0  0  0  0  0
    7.3138   -3.4535    0.0000 C   0  0  0  0  0  0  0  0  0  0  0  0
    7.9758   -4.6020    0.0000 Cl  0  0  0  0  0  0  0  0  0  0  0  0
  1  2  2  0  0  0  0
  2  3  1  0  0  0  0
  2 10  1  0  0  0  0
  3  4  1  0  0  0  0
  3  8  1  0  0  0  0
  4  5  1  0  0  0  0
  5  6  1  0  0  0  0
  5  7  2  0  0  0  0
  8  9  2  0  0  0  0
 10 11  1  0  0  0  0
 11 12  1  0  0  0  0
 12 13  1  0  0  0  0
M  END
>  <ActivityOutcome_CPDBAS_Hamster>
active

$$$$



 10  9  0  0  0  0  0  0  0  0  1 V2000
    2.3042   -1.9989    0.0000 N   0  0  0  0  0  0  0  0  0  0  0  0
    2.3042   -0.6682    0.0000 C   0  0  0  0  0  0  0  0  0  0  0  0
    3.4563    0.0000    0.0000 O   0  0  0  0  0  0  0  0  0  0  0  0
    1.1521    0.0000    0.0000 N   0  0  0  0  0  0  0  0  0  0  0  0
    1.1521   -2.6614    0.0000 N   0  0  0  0  0  0  0  0  0  0  0  0
    0.0000   -1.9989    0.0000 O   0  0  0  0  0  0  0  0  0  0  0  0
    3.4563   -2.6614    0.0000 C   0  0  0  0  0  0  0  0  0  0  0  0
    4.6084   -1.9989    0.0000 C   0  0  0  0  0  0  0  0  0  0  0  0
    5.7605   -2.6614    0.0000 C   0  0  0  0  0  0  0  0  0  0  0  0
    4.6084   -0.6682    0.0000 O   0  0  0  0  0  0  0  0  0  0  0  0
  1  2  1  0  0  0  0
  1  5  1  0  0  0  0
  1  7  1  0  0  0  0
  2  3  2  0  0  0  0
  2  4  1  0  0  0  0
  5  6  2  0  0  0  0
  7  8  1  0  0  0  0
  8  9  1  0  0  0  0
  8 10  2  0  0  0  0
M  END
>  <ActivityOutcome_CPDBAS_Hamster>
active

$$$$



 11 11  0  0  0  0  0  0  0  0  1 V2000
    5.7578   -1.9999    0.0000 C   0  0  0  0  0  0  0  0  0  0  0  0
    4.6046   -2.6612    0.0000 C   0  0  0  0  0  0  0  0  0  0  0  0
    3.4595   -1.9999    0.0000 C   0  0  0  0  0  0  0  0  0  0  0  0
    2.3063   -2.6612    0.0000 N   0  0  0  0  0  0  0  0  0  0  0  0
    1.1532   -1.9999    0.0000 C   0  0  0  0  0  0  0  0  0  0  0  0
    0.0000   -1.3306    0.0000 S   0  0  0  0  0  0  0  0  0  0  0  0
    5.7578   -0.6693    0.0000 C   0  0  0  0  0  0  0  0  0  0  0  0
    6.9109    0.0000    0.0000 C   0  0  0  0  0  0  0  0  0  0  0  0
    8.0641   -0.6693    0.0000 C   0  0  0  0  0  0  0  0  0  0  0  0
    8.0641   -1.9999    0.0000 C   0  0  0  0  0  0  0  0  0  0  0  0
    6.9109   -2.6612    0.0000 C   0  0  0  0  0  0  0  0  0  0  0  0
  1  2  1  0  0  0  0
  1  7  2  0  0  0  0
  1 11  1  0  0  0  0
  2  3  1  0  0  0  0
  3  4  1  0  0  0  0
  4  5  2  0  0  0  0
  5  6  2  0  0  0  0
  7  8  1  0  0  0  0
  8  9  2  0  0  0  0
  9 10  1  0  0  0  0
 10 11  2  0  0  0  0
M  END
>  <ActivityOutcome_CPDBAS_Hamster>
inactive

$$$$



 17 18  0  0  0  0  0  0  0  0  1 V2000
    2.3044    0.0000    0.0000 O   0  0  0  0  0  0  0  0  0  0  0  0
    2.3044   -1.3295    0.0000 C   0  0  0  0  0  0  0  0  0  0  0  0
    3.4567   -1.9942    0.0000 C   0  0  0  0  0  0  0  0  0  0  0  0
    4.7640   -2.2232    0.0000 C   0  0  0  0  0  0  0  0  0  0  0  0
    5.6208   -1.2039    0.0000 C   0  0  0  0  0  0  0  0  0  0  0  0
    6.9281   -1.4329    0.0000 C   0  0  0  0  0  0  0  0  0  0  0  0
    7.3860   -2.6885    0.0000 C   0  0  0  0  0  0  0  0  0  0  0  0
    6.5292   -3.7078    0.0000 C   0  0  0  0  0  0  0  0  0  0  0  0
    5.2219   -3.4714    0.0000 C   0  0  0  0  0  0  0  0  0  0  0  0
    3.4567   -3.3237    0.0000 C   0  0  0  0  0  0  0  0  0  0  0  0
    4.6089   -3.9884    0.0000 O   0  0  0  0  0  0  0  0  0  0  0  0
    2.3044   -3.9884    0.0000 N   0  0  0  0  0  0  0  0  0  0  0  0
    1.1522   -3.3237    0.0000 C   0  0  0  0  0  0  0  0  0  0  0  0
    0.0000   -3.9884    0.0000 O   0  0  0  0  0  0  0  0  0  0  0  0
    1.1522   -1.9942    0.0000 N   0  0  0  0  0  0  0  0  0  0  0  0
    3.9146   -0.7460    0.0000 C   0  0  0  0  0  0  0  0  0  0  0  0
    5.2219   -0.5096    0.0000 C   0  0  0  0  0  0  0  0  0  0  0  0
  1  2  2  0  0  0  0
  2  3  1  0  0  0  0
  2 15  1  0  0  0  0
  3  4  1  0  0  0  0
  3 10  1  0  0  0  0
  3 16  1  0  0  0  0
  4  5  2  0  0  0  0
  4  9  1  0  0  0  0
  5  6  1  0  0  0  0
  6  7  2  0  0  0  0
  7  8  1  0  0  0  0
  8  9  2  0  0  0  0
 10 11  2  0  0  0  0
 10 12  1  0  0  0  0
 12 13  1  0  0  0  0
 13 14  2  0  0  0  0
 13 15  1  0  0  0  0
 16 17  1  0  0  0  0
M  END
>  <ActivityOutcome_CPDBAS_Hamster>
inactive

$$$$



 17 19  0  0  0  0  0  0  0  0  1 V2000
    5.7546   -2.6609    0.0000 C   0  0  0  0  0  0  0  0  0  0  0  0
    6.9055   -1.9980    0.0000 C   0  0  0  0  0  0  0  0  0  0  0  0
    6.9055   -0.6629    0.0000 C   0  0  0  0  0  0  0  0  0  0  0  0
    5.7546    0.0000    0.0000 C   0  0  0  0  0  0  0  0  0  0  0  0
    4.6037   -0.6629    0.0000 C   0  0  0  0  0  0  0  0  0  0  0  0
    4.6037   -1.9980    0.0000 C   0  0  0  0  0  0  0  0  0  0  0  0
    3.4528   -2.6609    0.0000 N   0  0  0  0  0  0  0  0  0  0  0  0
    2.3018   -1.9980    0.0000 C   0  0  0  0  0  0  0  0  0  0  0  0
    1.1509   -2.6609    0.0000 C   0  0  0  0  0  0  0  0  0  0  0  0
    0.0000   -1.9980    0.0000 C   0  0  0  0  0  0  0  0  0  0  0  0
    0.0000   -0.6629    0.0000 C   0  0  0  0  0  0  0  0  0  0  0  0
    1.1509    0.0000    0.0000 C   0  0  0  0  0  0  0  0  0  0  0  0
    2.3018   -0.6629    0.0000 C   0  0  0  0  0  0  0  0  0  0  0  0
    8.0564    0.0000    0.0000 C   0  0  0  0  0  0  0  0  0  0  0  0
    9.2074   -0.6629    0.0000 C   0  0  0  0  0  0  0  0  0  0  0  0
    9.2074   -1.9980    0.0000 C   0  0  0  0  0  0  0  0  0  0  0  0
    8.0564   -2.6609    0.0000 C   0  0  0  0  0  0  0  0  0  0  0  0
  1  2  2  0  0  0  0
  1  6  1  0  0  0  0
  2  3  1  0  0  0  0
  2 17  1  0  0  0  0
  3  4  2  0  0  0  0
  3 14  1  0  0  0  0
  4  5  1  0  0  0  0
  5  6  2  0  0  0  0
  6  7  1  0  0  0  0
  7  8  1  0  0  0  0
  8  9  2  0  0  0  0
  8 13  1  0  0  0  0
  9 10  1  0  0  0  0
 10 11  2  0  0  0  0
 11 12  1  0  0  0  0
 12 13  2  0  0  0  0
 14 15  2  0  0  0  0
 15 16  1  0  0  0  0
 16 17  2  0  0  0  0
M  END
>  <ActivityOutcome_CPDBAS_Hamster>
inactive

$$$$



 23 26  0  0  0  0  0  0  0  0  1 V2000
    4.6025   -7.9798    0.0000 O   0  0  0  0  0  0  0  0  0  0  0  0
    4.6025   -6.6499    0.0000 C   0  0  0  0  0  0  0  0  0  0  0  0
    3.4579   -5.9889    0.0000 N   0  0  0  0  0  0  0  0  0  0  0  0
    3.4579   -4.6589    0.0000 C   0  0  0  0  0  0  0  0  0  0  0  0
    2.3053   -3.9899    0.0000 C   0  0  0  0  0  0  0  0  0  0  0  0
    1.1526   -4.6589    0.0000 C   0  0  0  0  0  0  0  0  0  0  0  0
    0.0000   -3.9899    0.0000 C   0  0  0  0  0  0  0  0  0  0  0  0
    0.0000   -2.6599    0.0000 C   0  0  0  0  0  0  0  0  0  0  0  0
    1.1526   -1.9990    0.0000 C   0  0  0  0  0  0  0  0  0  0  0  0
    2.3053   -2.6599    0.0000 C   0  0  0  0  0  0  0  0  0  0  0  0
    1.1526   -5.9889    0.0000 C   0  0  0  0  0  0  0  0  0  0  0  0
    2.3053   -6.6499    0.0000 C   0  0  0  0  0  0  0  0  0  0  0  0
    4.6025   -3.9899    0.0000 C   0  0  0  0  0  0  0  0  0  0  0  0
    5.7552   -4.6589    0.0000 N   0  0  0  0  0  0  0  0  0  0  0  0
    5.7552   -5.9889    0.0000 C   0  0  0  0  0  0  0  0  0  0  0  0
    6.9078   -3.9899    0.0000 C   0  0  0  0  0  0  0  0  0  0  0  0
    8.0604   -4.6589    0.0000 O   0  0  0  0  0  0  0  0  0  0  0  0
    6.9078   -2.6599    0.0000 C   0  0  0  0  0  0  0  0  0  0  0  0
    5.7552   -1.9990    0.0000 C   0  0  0  0  0  0  0  0  0  0  0  0
    5.7552   -0.6690    0.0000 C   0  0  0  0  0  0  0  0  0  0  0  0
    6.9078    0.0000    0.0000 C   0  0  0  0  0  0  0  0  0  0  0  0
    8.0604   -0.6690    0.0000 C   0  0  0  0  0  0  0  0  0  0  0  0
    8.0604   -1.9990    0.0000 C   0  0  0  0  0  0  0  0  0  0  0  0
  1  2  2  0  0  0  0
  2  3  1  0  0  0  0
  2 15  1  0  0  0  0
  3  4  1  0  0  0  0
  3 12  1  0  0  0  0
  4  5  1  0  0  0  0
  4 13  1  0  0  0  0
  5  6  2  0  0  0  0
  5 10  1  0  0  0  0
  6  7  1  0  0  0  0
  6 11  1  0  0  0  0
  7  8  2  0  0  0  0
  8  9  1  0  0  0  0
  9 10  2  0  0  0  0
 11 12  1  0  0  0  0
 13 14  1  0  0  0  0
 14 15  1  0  0  0  0
 14 16  1  0  0  0  0
 16 17  2  0  0  0  0
 16 18  1  0  0  0  0
 18 19  1  0  0  0  0
 18 23  1  0  0  0  0
 19 20  1  0  0  0  0
 20 21  1  0  0  0  0
 21 22  1  0  0  0  0
 22 23  1  0  0  0  0
M  END
>  <ActivityOutcome_CPDBAS_Hamster>
inactive

$$$$



 11 11  0  0  0  0  0  0  0  0  1 V2000
    1.9925   -2.3037    0.0000 C   0  0  0  0  0  0  0  0  0  0  0  0
    2.6567   -1.1488    0.0000 C   0  0  0  0  0  0  0  0  0  0  0  0
    3.9910   -1.1488    0.0000 C   0  0  0  0  0  0  0  0  0  0  0  0
    4.6552   -2.3037    0.0000 C   0  0  0  0  0  0  0  0  0  0  0  0
    5.9835   -2.3037    0.0000 O   0  0  0  0  0  0  0  0  0  0  0  0
    3.9910   -3.4525    0.0000 C   0  0  0  0  0  0  0  0  0  0  0  0
    2.6567   -3.4525    0.0000 C   0  0  0  0  0  0  0  0  0  0  0  0
    4.6552    0.0000    0.0000 O   0  0  0  0  0  0  0  0  0  0  0  0
    0.6642   -2.3037    0.0000 C   0  0  0  0  0  0  0  0  0  0  0  0
    0.0000   -3.4525    0.0000 O   0  0  0  0  0  0  0  0  0  0  0  0
    0.0000   -1.1488    0.0000 O   0  0  0  0  0  0  0  0  0  0  0  0
  1  2  2  0  0  0  0
  1  7  1  0  0  0  0
  1  9  1  0  0  0  0
  2  3  1  0  0  0  0
  3  4  2  0  0  0  0
  3  8  1  0  0  0  0
  4  5  1  0  0  0  0
  4  6  1  0  0  0  0
  6  7  2  0  0  0  0
  9 10  1  0  0  0  0
  9 11  2  0  0  0  0
M  END
>  <ActivityOutcome_CPDBAS_Hamster>
inactive

$$$$



 24 24  0  0  0  0  0  0  0  0  1 V2000
    4.6016    0.0000    0.0000 O   0  0  0  0  0  0  0  0  0  0  0  0
    4.6016   -1.3369    0.0000 C   0  0  0  0  0  0  0  0  0  0  0  0
    3.4512   -2.0002    0.0000 C   0  0  0  0  0  0  0  0  0  0  0  0
    3.4512   -3.3268    0.0000 C   0  0  0  0  0  0  0  0  0  0  0  0
    2.3008   -3.9901    0.0000 C   0  0  0  0  0  0  0  0  0  0  0  0
    1.1504   -3.3268    0.0000 C   0  0  0  0  0  0  0  0  0  0  0  0
    1.1504   -2.0002    0.0000 C   0  0  0  0  0  0  0  0  0  0  0  0
    2.3008   -1.3369    0.0000 C   0  0  0  0  0  0  0  0  0  0  0  0
    2.3008    0.0000    0.0000 O   0  0  0  0  0  0  0  0  0  0  0  0
    0.0000   -3.9901    0.0000 O   0  0  0  0  0  0  0  0  0  0  0  0
    4.6016   -3.9901    0.0000 O   0  0  0  0  0  0  0  0  0  0  0  0
    5.7623   -3.3268    0.0000 C   0  0  0  0  0  0  0  0  0  0  0  0
    5.7623   -2.0002    0.0000 C   0  0  0  0  0  0  0  0  0  0  0  0
    6.9127   -1.3369    0.0000 O   0  0  0  0  0  0  0  0  0  0  0  0
    6.9127   -3.9901    0.0000 C   0  0  0  0  0  0  0  0  0  0  0  0
    8.0631   -3.3268    0.0000 C   0  0  0  0  0  0  0  0  0  0  0  0
    9.2135   -3.9901    0.0000 C   0  0  0  0  0  0  0  0  0  0  0  0
    9.2135   -5.3270    0.0000 C   0  0  0  0  0  0  0  0  0  0  0  0
    8.0631   -5.9903    0.0000 C   0  0  0  0  0  0  0  0  0  0  0  0
    6.9127   -5.3270    0.0000 C   0  0  0  0  0  0  0  0  0  0  0  0
   10.3639   -5.9903    0.0000 O   0  0  0  0  0  0  0  0  0  0  0  0
   10.3639   -3.3268    0.0000 O   0  0  0  0  0  0  0  0  0  0  0  0
    5.1819   -7.3169    0.0000 O   0  0  0  0  0  0  0  0  0  0  0  0
    3.8554   -7.3169    0.0000 O   0  0  0  0  0  0  0  0  0  0  0  0
  1  2  2  0  0  0  0
  2  3  1  0  0  0  0
  2 13  1  0  0  0  0
  3  4  2  0  0  0  0
  3  8  1  0  0  0  0
  4  5  1  0  0  0  0
  4 11  1  0  0  0  0
  5  6  2  0  0  0  0
  6  7  1  0  0  0  0
  6 10  1  0  0  0  0
  7  8  2  0  0  0  0
  8  9  1  0  0  0  0
 11 12  1  0  0  0  0
 12 13  2  0  0  0  0
 12 15  1  0  0  0  0
 13 14  1  0  0  0  0
 15 16  2  0  0  0  0
 15 20  1  0  0  0  0
 16 17  1  0  0  0  0
 17 18  2  0  0  0  0
 17 22  1  0  0  0  0
 18 19  1  0  0  0  0
 18 21  1  0  0  0  0
 19 20  2  0  0  0  0
M  END
>  <ActivityOutcome_CPDBAS_Hamster>
inactive

$$$$



 25 26  0  0  0  0  0  0  0  0  1 V2000
   10.6420   -6.9191    0.0000 C   0  0  0  0  0  0  0  0  0  0  0  0
    9.9717   -8.0683    0.0000 C   0  0  0  0  0  0  0  0  0  0  0  0
    8.6429   -8.0683    0.0000 C   0  0  0  0  0  0  0  0  0  0  0  0
    7.9845   -6.9191    0.0000 C   0  0  0  0  0  0  0  0  0  0  0  0
    8.6429   -5.7580    0.0000 C   0  0  0  0  0  0  0  0  0  0  0  0
    9.9717   -5.7580    0.0000 C   0  0  0  0  0  0  0  0  0  0  0  0
    7.9845   -4.6088    0.0000 C   0  0  0  0  0  0  0  0  0  0  0  0
    8.6429   -3.4596    0.0000 C   0  0  0  0  0  0  0  0  0  0  0  0
    7.9845   -2.3104    0.0000 C   0  0  0  0  0  0  0  0  0  0  0  0
    8.6429   -1.1492    0.0000 C   0  0  0  0  0  0  0  0  0  0  0  0
    9.9717   -1.1492    0.0000 C   0  0  0  0  0  0  0  0  0  0  0  0
   10.6420    0.0000    0.0000 N   0  0  0  0  0  0  0  0  0  0  0  0
   10.6420   -2.3104    0.0000 C   0  0  0  0  0  0  0  0  0  0  0  0
    9.9717   -3.4596    0.0000 C   0  0  0  0  0  0  0  0  0  0  0  0
   11.9708   -2.3104    0.0000 C   0  0  0  0  0  0  0  0  0  0  0  0
    6.6558   -4.6088    0.0000 C   0  0  0  0  0  0  0  0  0  0  0  0
    5.9854   -5.7580    0.0000 C   0  0  0  0  0  0  0  0  0  0  0  0
    4.6566   -5.7580    0.0000 C   0  0  0  0  0  0  0  0  0  0  0  0
    3.9863   -4.6088    0.0000 C   0  0  0  0  0  0  0  0  0  0  0  0
    2.6575   -4.6088    0.0000 N   0  0  0  0  0  0  0  0  0  0  0  0
    4.6566   -3.4596    0.0000 C   0  0  0  0  0  0  0  0  0  0  0  0
    5.9854   -3.4596    0.0000 C   0  0  0  0  0  0  0  0  0  0  0  0
   10.6420   -9.2175    0.0000 N   0  0  0  0  0  0  0  0  0  0  0  0
    0.0000   -4.5609    0.0000 H   0  0  0  0  0  0  0  0  0  0  0  0
    1.3288   -4.5609    0.0000 Cl  0  0  0  0  0  0  0  0  0  0  0  0
  1  2  2  0  0  0  0
  1  6  1  0  0  0  0
  2  3  1  0  0  0  0
  2 23  1  0  0  0  0
  3  4  2  0  0  0  0
  4  5  1  0  0  0  0
  5  6  2  0  0  0  0
  5  7  1  0  0  0  0
  7  8  1  0  0  0  0
  7 16  2  0  0  0  0
  8  9  2  0  0  0  0
  8 14  1  0  0  0  0
  9 10  1  0  0  0  0
 10 11  2  0  0  0  0
 11 12  1  0  0  0  0
 11 13  1  0  0  0  0
 13 14  2  0  0  0  0
 13 15  1  0  0  0  0
 16 17  1  0  0  0  0
 16 22  1  0  0  0  0
 17 18  2  0  0  0  0
 18 19  1  0  0  0  0
 19 20  2  0  0  0  0
 19 21  1  0  0  0  0
 21 22  2  0  0  0  0
 24 25  1  0  0  0  0
M  END
>  <ActivityOutcome_CPDBAS_Hamster>
inactive

$$$$



 24 25  0  0  0  0  0  0  0  0  1 V2000
    7.9826   -4.6086    0.0000 C   0  0  0  0  0  0  0  0  0  0  0  0
    8.6532   -3.4591    0.0000 C   0  0  0  0  0  0  0  0  0  0  0  0
    7.9826   -2.2990    0.0000 C   0  0  0  0  0  0  0  0  0  0  0  0
    8.6532   -1.1495    0.0000 C   0  0  0  0  0  0  0  0  0  0  0  0
    9.9730   -1.1495    0.0000 C   0  0  0  0  0  0  0  0  0  0  0  0
   10.6435   -2.2990    0.0000 C   0  0  0  0  0  0  0  0  0  0  0  0
    9.9730   -3.4591    0.0000 C   0  0  0  0  0  0  0  0  0  0  0  0
   10.6435    0.0000    0.0000 N   0  0  0  0  0  0  0  0  0  0  0  0
    8.6532   -5.7581    0.0000 C   0  0  0  0  0  0  0  0  0  0  0  0
    9.9730   -5.7581    0.0000 C   0  0  0  0  0  0  0  0  0  0  0  0
   10.6435   -6.9076    0.0000 C   0  0  0  0  0  0  0  0  0  0  0  0
    9.9730   -8.0678    0.0000 C   0  0  0  0  0  0  0  0  0  0  0  0
    8.6532   -8.0678    0.0000 C   0  0  0  0  0  0  0  0  0  0  0  0
    7.9826   -6.9076    0.0000 C   0  0  0  0  0  0  0  0  0  0  0  0
   10.6435   -9.2173    0.0000 N   0  0  0  0  0  0  0  0  0  0  0  0
    6.6522   -4.6086    0.0000 C   0  0  0  0  0  0  0  0  0  0  0  0
    5.9923   -5.7581    0.0000 C   0  0  0  0  0  0  0  0  0  0  0  0
    4.6619   -5.7581    0.0000 C   0  0  0  0  0  0  0  0  0  0  0  0
    3.9913   -4.6086    0.0000 C   0  0  0  0  0  0  0  0  0  0  0  0
    4.6619   -3.4591    0.0000 C   0  0  0  0  0  0  0  0  0  0  0  0
    5.9923   -3.4591    0.0000 C   0  0  0  0  0  0  0  0  0  0  0  0
    2.6609   -4.6086    0.0000 N   0  0  0  0  0  0  0  0  0  0  0  0
    0.0000   -4.5554    0.0000 H   0  0  0  0  0  0  0  0  0  0  0  0
    1.3304   -4.5554    0.0000 Cl  0  0  0  0  0  0  0  0  0  0  0  0
  1  2  1  0  0  0  0
  1  9  1  0  0  0  0
  1 16  2  0  0  0  0
  2  3  2  0  0  0  0
  2  7  1  0  0  0  0
  3  4  1  0  0  0  0
  4  5  2  0  0  0  0
  5  6  1  0  0  0  0
  5  8  1  0  0  0  0
  6  7  2  0  0  0  0
  9 10  2  0  0  0  0
  9 14  1  0  0  0  0
 10 11  1  0  0  0  0
 11 12  2  0  0  0  0
 12 13  1  0  0  0  0
 12 15  1  0  0  0  0
 13 14  2  0  0  0  0
 16 17  1  0  0  0  0
 16 21  1  0  0  0  0
 17 18  2  0  0  0  0
 18 19  1  0  0  0  0
 19 20  1  0  0  0  0
 19 22  2  0  0  0  0
 20 21  2  0  0  0  0
 23 24  1  0  0  0  0
M  END
>  <ActivityOutcome_CPDBAS_Hamster>
inactive

$$$$



 43 47  0  0  1  0  0  0  0  0  1 V2000
    4.6024  -11.2995    0.0000 C   0  0  0  0  0  0  0  0  0  0  0  0
    4.6024   -9.9693    0.0000 C   0  0  0  0  0  0  0  0  0  0  0  0
    5.7644   -9.3118    0.0000 C   0  0  0  0  0  0  0  0  0  0  0  0
    6.9112   -9.9693    0.0000 C   0  0  0  0  0  0  0  0  0  0  0  0
    8.0580   -9.3118    0.0000 C   0  0  0  0  0  0  0  0  0  0  0  0
    9.2048   -9.9693    0.0000 C   0  0  0  0  0  0  0  0  0  0  0  0
    9.2048  -11.2995    0.0000 C   0  0  0  0  0  0  0  0  0  0  0  0
    8.0580  -11.9723    0.0000 C   0  0  0  0  0  0  0  0  0  0  0  0
    6.9112  -11.2995    0.0000 C   0  0  0  0  0  0  0  0  0  0  0  0
    5.7644  -11.9723    0.0000 O   0  0  0  0  0  0  0  0  0  0  0  0
   10.3668  -11.9723    0.0000 O   0  0  0  0  0  0  0  0  0  0  0  0
    8.0580   -7.9815    0.0000 O   0  0  0  0  0  0  0  0  0  0  0  0
    5.7644   -7.9815    0.0000 O   0  0  0  0  0  0  0  0  0  0  0  0
    3.4556   -9.3118    0.0000 O   0  0  0  0  0  0  0  0  0  0  0  0
    3.4556   -7.9815    0.0000 C   0  0  0  0  0  0  0  0  0  0  0  0
    4.6024   -7.3088    0.0000 O   0  0  0  0  0  0  0  0  0  0  0  0
    4.6024   -5.9785    0.0000 C   0  0  0  0  0  0  0  0  0  0  0  0
    5.7644   -5.3210    0.0000 C   0  0  0  0  0  0  0  0  0  0  0  0
    5.7644   -3.9908    0.0000 O   0  0  0  0  0  0  0  0  0  0  0  0
    6.9112   -3.3180    0.0000 C   0  0  0  0  0  0  0  0  0  0  0  0
    6.9112   -1.9877    0.0000 C   0  0  0  0  0  0  0  0  0  0  0  0
    8.0580   -1.3303    0.0000 C   0  0  0  0  0  0  0  0  0  0  0  0
    9.2048   -1.9877    0.0000 C   0  0  0  0  0  0  0  0  0  0  0  0
   10.3668   -1.3303    0.0000 O   0  0  0  0  0  0  0  0  0  0  0  0
    9.2048   -3.3180    0.0000 C   0  0  0  0  0  0  0  0  0  0  0  0
    8.0580   -3.9908    0.0000 O   0  0  0  0  0  0  0  0  0  0  0  0
   10.3668   -3.9908    0.0000 C   0  0  0  0  0  0  0  0  0  0  0  0
    8.0580    0.0000    0.0000 O   0  0  0  0  0  0  0  0  0  0  0  0
    5.7644   -1.3303    0.0000 O   0  0  0  0  0  0  0  0  0  0  0  0
    3.4556   -5.3210    0.0000 C   0  0  0  0  0  0  0  0  0  0  0  0
    3.4556   -3.9908    0.0000 O   0  0  0  0  0  0  0  0  0  0  0  0
    2.3088   -5.9785    0.0000 C   0  0  0  0  0  0  0  0  0  0  0  0
    2.3088   -7.3088    0.0000 C   0  0  0  0  0  0  0  0  0  0  0  0
    1.1468   -7.9815    0.0000 O   0  0  0  0  0  0  0  0  0  0  0  0
    1.1468   -5.3210    0.0000 O   0  0  0  0  0  0  0  0  0  0  0  0
    3.4556  -11.9723    0.0000 C   0  0  0  0  0  0  0  0  0  0  0  0
    3.4556  -13.3026    0.0000 C   0  0  0  0  0  0  0  0  0  0  0  0
    2.3088  -13.9600    0.0000 C   0  0  0  0  0  0  0  0  0  0  0  0
    1.1468  -13.3026    0.0000 C   0  0  0  0  0  0  0  0  0  0  0  0
    0.0000  -13.9600    0.0000 O   0  0  0  0  0  0  0  0  0  0  0  0
    1.1468  -11.9723    0.0000 C   0  0  0  0  0  0  0  0  0  0  0  0
    2.3088  -11.2995    0.0000 C   0  0  0  0  0  0  0  0  0  0  0  0
    2.3088  -15.2903    0.0000 O   0  0  0  0  0  0  0  0  0  0  0  0
  1  2  2  0  0  0  0
  1 10  1  0  0  0  0
  1 36  1  0  0  0  0
  2  3  1  0  0  0  0
  2 14  1  0  0  0  0
  3  4  1  0  0  0  0
  3 13  2  0  0  0  0
  4  5  1  0  0  0  0
  4  9  2  0  0  0  0
  5  6  2  0  0  0  0
  5 12  1  0  0  0  0
  6  7  1  0  0  0  0
  7  8  2  0  0  0  0
  7 11  1  0  0  0  0
  8  9  1  0  0  0  0
  9 10  1  0  0  0  0
 15 14  1  1  0  0  0
 15 16  1  0  0  0  0
 15 33  1  0  0  0  0
 16 17  1  0  0  0  0
 17 18  1  1  0  0  0
 17 30  1  0  0  0  0
 18 19  1  0  0  0  0
 20 19  1  1  0  0  0
 20 21  1  0  0  0  0
 20 26  1  0  0  0  0
 21 22  1  0  0  0  0
 21 29  1  6  0  0  0
 22 23  1  0  0  0  0
 22 28  1  6  0  0  0
 23 24  1  1  0  0  0
 23 25  1  0  0  0  0
 25 26  1  0  0  0  0
 25 27  1  6  0  0  0
 30 31  1  6  0  0  0
 30 32  1  0  0  0  0
 32 33  1  0  0  0  0
 32 35  1  1  0  0  0
 33 34  1  6  0  0  0
 36 37  2  0  0  0  0
 36 42  1  0  0  0  0
 37 38  1  0  0  0  0
 38 39  2  0  0  0  0
 38 43  1  0  0  0  0
 39 40  1  0  0  0  0
 39 41  1  0  0  0  0
 41 42  2  0  0  0  0
M  END
>  <ActivityOutcome_CPDBAS_Hamster>
inactive

$$$$



  5  4  0  0  0  0  0  0  0  0  1 V2000
    3.4567   -1.9945    0.0000 Cl  0  0  0  0  0  0  0  0  0  0  0  0
    2.3056   -1.3308    0.0000 C   0  0  0  0  0  0  0  0  0  0  0  0
    1.1511   -1.9945    0.0000 C   0  0  0  0  0  0  0  0  0  0  0  0
    0.0000   -1.3308    0.0000 Cl  0  0  0  0  0  0  0  0  0  0  0  0
    2.3056    0.0000    0.0000 Cl  0  0  0  0  0  0  0  0  0  0  0  0
  1  2  1  0  0  0  0
  2  3  2  0  0  0  0
  2  5  1  0  0  0  0
  3  4  1  0  0  0  0
M  END
>  <ActivityOutcome_CPDBAS_Hamster>
inactive

$$$$



  6  5  0  0  0  0  0  0  0  0  1 V2000
    4.6084   -1.9954    0.0000 N   0  0  0  0  0  0  0  0  0  0  0  0
    3.4563   -1.3318    0.0000 C   0  0  0  0  0  0  0  0  0  0  0  0
    3.4563    0.0000    0.0000 O   0  0  0  0  0  0  0  0  0  0  0  0
    2.3042   -1.9954    0.0000 O   0  0  0  0  0  0  0  0  0  0  0  0
    1.1521   -1.3318    0.0000 C   0  0  0  0  0  0  0  0  0  0  0  0
    0.0000   -1.9954    0.0000 C   0  0  0  0  0  0  0  0  0  0  0  0
  1  2  1  0  0  0  0
  2  3  2  0  0  0  0
  2  4  1  0  0  0  0
  4  5  1  0  0  0  0
  5  6  1  0  0  0  0
M  END
>  <ActivityOutcome_CPDBAS_Hamster>
active

$$$$



  3  2  0  0  0  0  0  0  0  0  1 V2000
    2.3030   -0.6656    0.0000 C   0  0  0  0  0  0  0  0  0  0  0  0
    1.1515    0.0000    0.0000 C   0  0  0  0  0  0  0  0  0  0  0  0
    0.0000   -0.6656    0.0000 Cl  0  0  0  0  0  0  0  0  0  0  0  0
  1  2  2  0  0  0  0
  2  3  1  0  0  0  0
M  END
>  <ActivityOutcome_CPDBAS_Hamster>
active

$$$$



 13 12  0  0  0  0  0  0  0  0  2 V2000
    0.0000   -1.1513    0.0000 N   0  0  0  0  0  0  0  0  0  0  0  0
    1.3274   -1.1513    0.0000 N   0  3  0  0  0  0  0  0  0  0  0  0
    2.6611   -1.1513    0.0000 C   0  0  0  0  0  0  0  0  0  0  0  0
    3.3217    0.0000    0.0000 C   0  0  0  0  0  0  0  0  0  0  0  0
    4.6554    0.0000    0.0000 C   0  0  0  0  0  0  0  0  0  0  0  0
    5.3159   -1.1513    0.0000 C   0  0  0  0  0  0  0  0  0  0  0  0
    4.6554   -2.3025    0.0000 C   0  0  0  0  0  0  0  0  0  0  0  0
    3.3217   -2.3025    0.0000 C   0  0  0  0  0  0  0  0  0  0  0  0
    2.6611   -6.2911    0.0000 F   0  0  0  0  0  0  0  0  0  0  0  0
    2.6611   -4.9636    0.0000 B   0  5  0  0  0  0  0  0  0  0  0  0
    1.3274   -4.9636    0.0000 F   0  0  0  0  0  0  0  0  0  0  0  0
    2.6611   -3.6299    0.0000 F   0  0  0  0  0  0  0  0  0  0  0  0
    3.9885   -4.9636    0.0000 F   0  0  0  0  0  0  0  0  0  0  0  0
  1  2  3  0  0  0  0
  2  3  1  0  0  0  0
  3  4  2  0  0  0  0
  3  8  1  0  0  0  0
  4  5  1  0  0  0  0
  5  6  2  0  0  0  0
  6  7  1  0  0  0  0
  7  8  2  0  0  0  0
  9 10  1  0  0  0  0
 10 11  1  0  0  0  0
 10 12  1  0  0  0  0
 10 13  1  0  0  0  0
M  CHG  2   2   1  10  -1
M  END
>  <ActivityOutcome_CPDBAS_Hamster>
inactive

$$$$



 12 12  0  0  0  0  0  0  0  0  1 V2000
    3.4560   -1.3271    0.0000 C   0  0  0  0  0  0  0  0  0  0  0  0
    4.6103   -1.9906    0.0000 C   0  0  0  0  0  0  0  0  0  0  0  0
    4.6103   -3.3247    0.0000 N   0  0  0  0  0  0  0  0  0  0  0  0
    3.4560   -3.9882    0.0000 C   0  0  0  0  0  0  0  0  0  0  0  0
    2.3017   -3.3247    0.0000 C   0  0  0  0  0  0  0  0  0  0  0  0
    2.3017   -1.9906    0.0000 N   0  0  0  0  0  0  0  0  0  0  0  0
    1.1543   -1.3271    0.0000 N   0  0  0  0  0  0  0  0  0  0  0  0
    0.0000   -1.9906    0.0000 O   0  0  0  0  0  0  0  0  0  0  0  0
    1.1543   -3.9882    0.0000 C   0  0  0  0  0  0  0  0  0  0  0  0
    5.7577   -3.9882    0.0000 N   0  0  0  0  0  0  0  0  0  0  0  0
    6.9120   -3.3247    0.0000 O   0  0  0  0  0  0  0  0  0  0  0  0
    3.4560    0.0000    0.0000 C   0  0  0  0  0  0  0  0  0  0  0  0
  1  2  1  0  0  0  0
  1  6  1  0  0  0  0
  1 12  1  0  0  0  0
  2  3  1  0  0  0  0
  3  4  1  0  0  0  0
  3 10  1  0  0  0  0
  4  5  1  0  0  0  0
  5  6  1  0  0  0  0
  5  9  1  0  0  0  0
  6  7  1  0  0  0  0
  7  8  2  0  0  0  0
 10 11  2  0  0  0  0
M  END
>  <ActivityOutcome_CPDBAS_Hamster>
active

$$$$



  9  8  0  0  0  0  0  0  0  0  1 V2000
    4.6053   -1.9954    0.0000 N   0  0  0  0  0  0  0  0  0  0  0  0
    3.4522   -1.3257    0.0000 C   0  0  0  0  0  0  0  0  0  0  0  0
    2.2992   -1.9954    0.0000 C   0  0  0  0  0  0  0  0  0  0  0  0
    1.1530   -1.3257    0.0000 N   0  0  0  0  0  0  0  0  0  0  0  0
    0.0000   -1.9954    0.0000 C   0  0  0  0  0  0  0  0  0  0  0  0
    1.1530    0.0000    0.0000 C   0  0  0  0  0  0  0  0  0  0  0  0
    4.6053   -3.3210    0.0000 C   0  0  0  0  0  0  0  0  0  0  0  0
    5.7514   -1.3257    0.0000 N   0  0  0  0  0  0  0  0  0  0  0  0
    6.9045   -1.9954    0.0000 O   0  0  0  0  0  0  0  0  0  0  0  0
  1  2  1  0  0  0  0
  1  7  1  0  0  0  0
  1  8  1  0  0  0  0
  2  3  1  0  0  0  0
  3  4  1  0  0  0  0
  4  5  1  0  0  0  0
  4  6  1  0  0  0  0
  8  9  2  0  0  0  0
M  END
>  <ActivityOutcome_CPDBAS_Hamster>
active

$$$$



 10 10  0  0  0  0  0  0  0  0  1 V2000
    0.6656   -1.1543    0.0000 C   0  0  0  0  0  0  0  0  0  0  0  0
    1.9968   -1.1543    0.0000 C   0  0  0  0  0  0  0  0  0  0  0  0
    2.6577   -2.3040    0.0000 N   0  0  0  0  0  0  0  0  0  0  0  0
    3.9889   -2.3040    0.0000 N   0  0  0  0  0  0  0  0  0  0  0  0
    4.6545   -1.1543    0.0000 O   0  0  0  0  0  0  0  0  0  0  0  0
    1.9968   -3.4583    0.0000 C   0  0  0  0  0  0  0  0  0  0  0  0
    0.6656   -3.4583    0.0000 C   0  0  0  0  0  0  0  0  0  0  0  0
    0.0000   -2.3040    0.0000 O   0  0  0  0  0  0  0  0  0  0  0  0
    0.0000   -4.6079    0.0000 C   0  0  0  0  0  0  0  0  0  0  0  0
    0.0000    0.0000    0.0000 C   0  0  0  0  0  0  0  0  0  0  0  0
  1  2  1  0  0  0  0
  1  8  1  0  0  0  0
  1 10  1  0  0  0  0
  2  3  1  0  0  0  0
  3  4  1  0  0  0  0
  3  6  1  0  0  0  0
  4  5  2  0  0  0  0
  6  7  1  0  0  0  0
  7  8  1  0  0  0  0
  7  9  1  0  0  0  0
M  END
>  <ActivityOutcome_CPDBAS_Hamster>
active

$$$$



  9  9  0  0  0  0  0  0  0  0  1 V2000
    2.1136   -0.3740    0.0000 O   0  0  0  0  0  0  0  0  0  0  0  0
    3.3772   -0.7820    0.0000 C   0  0  0  0  0  0  0  0  0  0  0  0
    3.3772   -2.1136    0.0000 N   0  0  0  0  0  0  0  0  0  0  0  0
    2.1136   -2.5272    0.0000 C   0  0  0  0  0  0  0  0  0  0  0  0
    1.3316   -1.4506    0.0000 C   0  0  0  0  0  0  0  0  0  0  0  0
    0.0000   -1.4506    0.0000 C   0  0  0  0  0  0  0  0  0  0  0  0
    4.4538   -2.8956    0.0000 N   0  0  0  0  0  0  0  0  0  0  0  0
    5.6665   -2.3572    0.0000 O   0  0  0  0  0  0  0  0  0  0  0  0
    4.4538    0.0000    0.0000 O   0  0  0  0  0  0  0  0  0  0  0  0
  1  2  1  0  0  0  0
  1  5  1  0  0  0  0
  2  3  1  0  0  0  0
  2  9  2  0  0  0  0
  3  4  1  0  0  0  0
  3  7  1  0  0  0  0
  4  5  1  0  0  0  0
  5  6  1  0  0  0  0
  7  8  2  0  0  0  0
M  END
>  <ActivityOutcome_CPDBAS_Hamster>
active

$$$$



  9  8  0  0  0  0  0  0  0  0  1 V2000
    0.0000   -1.1552    0.0000 C   0  0  0  0  0  0  0  0  0  0  0  0
    0.6644   -2.3044    0.0000 C   0  0  0  0  0  0  0  0  0  0  0  0
    1.9932   -2.3044    0.0000 O   0  0  0  0  0  0  0  0  0  0  0  0
    2.6576   -1.1552    0.0000 C   0  0  0  0  0  0  0  0  0  0  0  0
    1.9932    0.0000    0.0000 O   0  0  0  0  0  0  0  0  0  0  0  0
    3.9924   -1.1552    0.0000 N   0  0  0  0  0  0  0  0  0  0  0  0
    4.6568   -2.3044    0.0000 C   0  0  0  0  0  0  0  0  0  0  0  0
    4.6568    0.0000    0.0000 N   0  0  0  0  0  0  0  0  0  0  0  0
    5.9855    0.0000    0.0000 O   0  0  0  0  0  0  0  0  0  0  0  0
  1  2  1  0  0  0  0
  2  3  1  0  0  0  0
  3  4  1  0  0  0  0
  4  5  2  0  0  0  0
  4  6  1  0  0  0  0
  6  7  1  0  0  0  0
  6  8  1  0  0  0  0
  8  9  2  0  0  0  0
M  END
>  <ActivityOutcome_CPDBAS_Hamster>
active

$$$$



  7  7  0  0  0  0  0  0  0  0  1 V2000
    3.5169   -2.1419    0.0000 C   0  0  0  0  0  0  0  0  0  0  0  0
    2.3050   -1.5998    0.0000 N   0  0  0  0  0  0  0  0  0  0  0  0
    2.4416   -0.2777    0.0000 C   0  0  0  0  0  0  0  0  0  0  0  0
    3.7417    0.0000    0.0000 O   0  0  0  0  0  0  0  0  0  0  0  0
    4.4072   -1.1547    0.0000 C   0  0  0  0  0  0  0  0  0  0  0  0
    1.1503   -2.2653    0.0000 N   0  0  0  0  0  0  0  0  0  0  0  0
    0.0000   -1.5998    0.0000 O   0  0  0  0  0  0  0  0  0  0  0  0
  1  2  1  0  0  0  0
  1  5  1  0  0  0  0
  2  3  1  0  0  0  0
  2  6  1  0  0  0  0
  3  4  1  0  0  0  0
  4  5  1  0  0  0  0
  6  7  2  0  0  0  0
M  END
>  <ActivityOutcome_CPDBAS_Hamster>
active

$$$$



 14 14  0  0  0  0  0  0  0  0  1 V2000
    1.9935   -3.4527    0.0000 O   0  0  0  0  0  0  0  0  0  0  0  0
    1.3316   -2.3044    0.0000 C   0  0  0  0  0  0  0  0  0  0  0  0
    1.9935   -1.1482    0.0000 N   0  0  0  0  0  0  0  0  0  0  0  0
    3.3251   -1.1482    0.0000 C   0  0  0  0  0  0  0  0  0  0  0  0
    3.9869   -2.3044    0.0000 C   0  0  0  0  0  0  0  0  0  0  0  0
    5.3186   -2.3044    0.0000 C   0  0  0  0  0  0  0  0  0  0  0  0
    5.9804   -1.1482    0.0000 C   0  0  0  0  0  0  0  0  0  0  0  0
    7.3120   -1.1482    0.0000 C   0  0  0  0  0  0  0  0  0  0  0  0
    7.9739   -2.3044    0.0000 C   0  0  0  0  0  0  0  0  0  0  0  0
    7.3120   -3.4527    0.0000 C   0  0  0  0  0  0  0  0  0  0  0  0
    5.9804   -3.4527    0.0000 C   0  0  0  0  0  0  0  0  0  0  0  0
    1.3316    0.0000    0.0000 N   0  0  0  0  0  0  0  0  0  0  0  0
    0.0000    0.0000    0.0000 O   0  0  0  0  0  0  0  0  0  0  0  0
    0.0000   -2.3044    0.0000 N   0  0  0  0  0  0  0  0  0  0  0  0
  1  2  2  0  0  0  0
  2  3  1  0  0  0  0
  2 14  1  0  0  0  0
  3  4  1  0  0  0  0
  3 12  1  0  0  0  0
  4  5  1  0  0  0  0
  5  6  1  0  0  0  0
  6  7  2  0  0  0  0
  6 11  1  0  0  0  0
  7  8  1  0  0  0  0
  8  9  2  0  0  0  0
  9 10  1  0  0  0  0
 10 11  2  0  0  0  0
 12 13  2  0  0  0  0
M  END
>  <ActivityOutcome_CPDBAS_Hamster>
active

$$$$



  6  6  0  0  0  0  0  0  0  0  1 V2000
    2.2694    0.0000    0.0000 C   0  0  0  0  0  0  0  0  0  0  0  0
    2.2694   -1.3318    0.0000 C   0  0  0  0  0  0  0  0  0  0  0  0
    0.9376   -1.3318    0.0000 N   0  0  0  0  0  0  0  0  0  0  0  0
    0.0000   -2.2694    0.0000 N   0  0  0  0  0  0  0  0  0  0  0  0
    0.3409   -3.5516    0.0000 O   0  0  0  0  0  0  0  0  0  0  0  0
    0.9376    0.0000    0.0000 C   0  0  0  0  0  0  0  0  0  0  0  0
  1  2  1  0  0  0  0
  1  6  1  0  0  0  0
  2  3  1  0  0  0  0
  3  4  1  0  0  0  0
  3  6  1  0  0  0  0
  4  5  2  0  0  0  0
M  END
>  <ActivityOutcome_CPDBAS_Hamster>
active

$$$$



  6  4  0  0  0  0  0  0  0  0  2 V2000
    2.6600   -2.6600    0.0000 F   0  0  0  0  0  0  0  0  0  0  0  0
    2.6600   -1.3320    0.0000 B   0  5  0  0  0  0  0  0  0  0  0  0
    1.3280   -1.3320    0.0000 F   0  0  0  0  0  0  0  0  0  0  0  0
    2.6600    0.0000    0.0000 F   0  0  0  0  0  0  0  0  0  0  0  0
    3.9880   -1.3320    0.0000 F   0  0  0  0  0  0  0  0  0  0  0  0
    0.0000   -1.3320    0.0000 Na  0  3  0  0  0  0  0  0  0  0  0  0
  1  2  1  0  0  0  0
  2  3  1  0  0  0  0
  2  4  1  0  0  0  0
  2  5  1  0  0  0  0
M  CHG  2   2  -1   6   1
M  END
>  <ActivityOutcome_CPDBAS_Hamster>
inactive

